# created with PyMOL 2.5.8
@<TRIPOS>MOLECULE
6x5n_1
1682 1808 51            
SMALL
USER_CHARGES
@<TRIPOS>ATOM
1	   P	80.181	31.929	151.955	P.3	1	G1	0.000	
2	 C5'	82.727	32.494	152.423	C.3	1	G1	0.000	
3	 O5'	81.549	31.773	152.780	O.3	1	G1	0.000	
4	 C4'	83.972	31.717	152.769	C.3	1	G1	0.000	
5	 O4'	84.038	31.520	154.203	O.3	1	G1	0.000	
6	 C3'	84.023	30.310	152.193	C.3	1	G1	0.000	
7	 O3'	84.511	30.279	150.871	O.3	1	G1	0.000	
8	 C2'	84.901	29.571	153.186	C.3	1	G1	0.000	
9	 O2'	86.269	29.893	152.993	O.3	1	G1	0.000	
10	 C1'	84.439	30.199	154.491	C.3	1	G1	0.000	
11	  N1	82.732	25.914	156.524	N.pl3	1	G1	0.000	
12	  C2	84.006	26.239	156.109	C.2	1	G1	0.000	
13	  N2	84.953	25.303	156.250	N.pl3	1	G1	0.000	
14	  N3	84.335	27.403	155.588	N.2	1	G1	0.000	
15	  C4	83.264	28.217	155.517	C.2	1	G1	0.000	
16	  C5	81.962	27.995	155.898	C.2	1	G1	0.000	
17	  C6	81.620	26.751	156.452	C.2	1	G1	0.000	
18	  O6	80.510	26.387	156.847	O.2	1	G1	0.000	
19	  N7	81.168	29.097	155.659	N.2	1	G1	0.000	
20	  C8	81.991	29.962	155.140	C.2	1	G1	0.000	
21	  N9	83.272	29.489	155.029	N.pl3	1	G1	0.000	
22	 OP1	79.686	30.577	151.581	O.2	1	G1	0.000	
23	 OP2	79.245	32.855	152.662	O.3	1	G1	0.000	
24	 H01	82.740	33.430	152.982	 H	1	G1	0.000	
25	 H02	82.715	32.687	151.350	 H	1	G1	0.000	
26	 H03	84.786	32.311	152.353	 H	1	G1	0.000	
27	 H04	83.040	29.851	152.088	 H	1	G1	0.000	
28	 H05	84.822	28.486	153.120	 H	1	G1	0.000	
29	 H06	86.549	30.517	153.666	 H	1	G1	0.000	
30	 H07	85.249	30.157	155.219	 H	1	G1	0.000	
31	 H08	82.593	24.992	156.913	 H	1	G1	0.000	
32	 H09	85.901	25.496	155.959	 H	1	G1	0.000	
33	 H10	84.719	24.404	156.647	 H	1	G1	0.000	
34	 H11	81.691	30.962	154.826	 H	1	G1	0.000	
35	 H12	79.090	33.631	152.118	 H	1	G1	0.000	
36	   P	83.639	29.567	149.734	P.3	2	G2	0.000	
37	 C5'	85.227	27.568	149.285	C.3	2	G2	0.000	
38	 O5'	84.013	28.035	149.827	O.3	2	G2	0.000	
39	 C4'	85.487	26.179	149.769	C.3	2	G2	0.000	
40	 O4'	85.355	26.145	151.213	O.3	2	G2	0.000	
41	 C3'	84.491	25.139	149.295	C.3	2	G2	0.000	
42	 O3'	84.724	24.678	147.985	O.3	2	G2	0.000	
43	 C2'	84.606	24.074	150.361	C.3	2	G2	0.000	
44	 O2'	85.810	23.343	150.202	O.3	2	G2	0.000	
45	 C1'	84.726	24.943	151.606	C.3	2	G2	0.000	
46	  N1	80.661	22.996	153.890	N.pl3	2	G2	0.000	
47	  C2	81.820	22.390	153.484	C.2	2	G2	0.000	
48	  N2	81.922	21.070	153.714	N.pl3	2	G2	0.000	
49	  N3	82.810	23.032	152.892	N.2	2	G2	0.000	
50	  C4	82.548	24.342	152.729	C.2	2	G2	0.000	
51	  C5	81.430	25.046	153.107	C.2	2	G2	0.000	
52	  C6	80.371	24.340	153.745	C.2	2	G2	0.000	
53	  O6	79.287	24.752	154.162	O.2	2	G2	0.000	
54	  N7	81.574	26.388	152.762	N.2	2	G2	0.000	
55	  C8	82.751	26.469	152.197	C.2	2	G2	0.000	
56	  N9	83.398	25.259	152.162	N.pl3	2	G2	0.000	
57	 OP1	84.143	30.068	148.437	O.co2	2	G2	0.000	
58	 OP2	82.207	29.683	150.095	O.3	2	G2	0.000	
59	 H01	85.164	27.568	148.197	 H	2	G2	0.000	
60	 H02	86.478	25.942	149.383	 H	2	G2	0.000	
61	 H03	83.478	25.529	149.196	 H	2	G2	0.000	
62	 H04	83.792	23.349	150.361	 H	2	G2	0.000	
63	 H05	86.072	23.354	149.278	 H	2	G2	0.000	
64	 H06	85.295	24.416	152.371	 H	2	G2	0.000	
65	 H07	79.962	22.415	154.331	 H	2	G2	0.000	
66	 H08	82.755	20.572	153.435	 H	2	G2	0.000	
67	 H09	81.166	20.576	154.166	 H	2	G2	0.000	
68	 H10	83.171	27.393	151.799	 H	2	G2	0.000	
69	 H11	81.944	30.606	150.069	 H	2	G2	0.000	
70	 H13	86.041	28.221	149.601	 H	2	G2	0.000	
71	   P	83.573	24.893	146.898	P.3	3	C3	0.000	
72	 C5'	82.499	22.510	146.888	C.3	3	C3	0.000	
73	 O5'	82.472	23.846	147.357	O.3	3	C3	0.000	
74	 C4'	82.776	21.538	148.007	C.3	3	C3	0.000	
75	 O4'	82.565	22.186	149.289	O.3	3	C3	0.000	
76	 C3'	81.855	20.331	148.050	C.3	3	C3	0.000	
77	 O3'	82.221	19.313	147.140	O.3	3	C3	0.000	
78	 C2'	81.915	19.924	149.510	C.3	3	C3	0.000	
79	 O2'	83.145	19.278	149.795	O.3	3	C3	0.000	
80	 C1'	81.932	21.292	150.183	C.3	3	C3	0.000	
81	  N1	80.563	21.802	150.469	N.pl3	3	C3	0.000	
82	  C2	79.665	21.095	151.293	C.2	3	C3	0.000	
83	  O2	79.995	20.020	151.813	O.2	3	C3	0.000	
84	  N3	78.431	21.604	151.525	N.2	3	C3	0.000	
85	  C4	78.052	22.759	150.979	C.2	3	C3	0.000	
86	  N4	76.820	23.208	151.240	N.pl3	3	C3	0.000	
87	  C5	78.930	23.501	150.139	C.2	3	C3	0.000	
88	  C6	80.153	22.992	149.920	C.2	3	C3	0.000	
89	 OP1	84.043	24.497	145.547	O.co2	3	C3	0.000	
90	 OP2	83.033	26.260	147.098	O.3	3	C3	0.000	
91	 H01	81.534	22.271	146.441	 H	3	C3	0.000	
92	 H02	83.800	21.214	147.822	 H	3	C3	0.000	
93	 H03	80.838	20.549	147.724	 H	3	C3	0.000	
94	 H04	81.116	19.248	149.815	 H	3	C3	0.000	
95	 H05	83.442	18.798	149.019	 H	3	C3	0.000	
96	 H06	82.454	21.208	151.136	 H	3	C3	0.000	
97	 H07	76.505	24.080	150.840	 H	3	C3	0.000	
98	 H08	76.204	22.675	151.837	 H	3	C3	0.000	
99	 H09	78.621	24.446	149.691	 H	3	C3	0.000	
100	 H10	80.845	23.543	149.284	 H	3	C3	0.000	
101	 H11	82.935	26.694	146.247	 H	3	C3	0.000	
102	 H12	83.298	22.422	146.152	 H	3	C3	0.000	
103	   P	81.223	18.956	145.932	P.3	4	A4	0.000	
104	 C5'	79.791	16.935	146.743	C.3	4	A4	0.000	
105	 O5'	79.929	18.339	146.628	O.3	4	A4	0.000	
106	 C4'	78.918	16.507	147.897	C.3	4	A4	0.000	
107	 O4'	78.836	17.534	148.929	O.3	4	A4	0.000	
108	 C3'	77.461	16.213	147.593	C.3	4	A4	0.000	
109	 O3'	77.239	15.004	146.894	O.3	4	A4	0.000	
110	 C2'	76.847	16.248	148.982	C.3	4	A4	0.000	
111	 O2'	77.237	15.101	149.725	O.3	4	A4	0.000	
112	 C1'	77.567	17.457	149.567	C.3	4	A4	0.000	
113	  N1	76.446	21.745	146.728	N.2	4	A4	0.000	
114	  C2	77.353	20.778	146.536	C.2	4	A4	0.000	
115	  N3	77.606	19.703	147.288	N.2	4	A4	0.000	
116	  C4	76.803	19.645	148.371	C.2	4	A4	0.000	
117	  C5	75.825	20.571	148.701	C.2	4	A4	0.000	
118	  C6	75.653	21.663	147.824	C.2	4	A4	0.000	
119	  N6	74.748	22.623	148.018	N.pl3	4	A4	0.000	
120	  N7	75.180	20.213	149.875	N.2	4	A4	0.000	
121	  C8	75.774	19.103	150.223	C.2	4	A4	0.000	
122	  N9	76.782	18.700	149.381	N.pl3	4	A4	0.000	
123	 OP1	81.854	17.886	145.123	O.co2	4	A4	0.000	
124	 OP2	80.811	20.237	145.306	O.3	4	A4	0.000	
125	 H01	79.354	16.554	145.820	 H	4	A4	0.000	
126	 H02	79.424	15.589	148.195	 H	4	A4	0.000	
127	 H03	77.015	16.926	146.900	 H	4	A4	0.000	
128	 H04	75.758	16.283	148.989	 H	4	A4	0.000	
129	 H05	77.410	14.373	149.123	 H	4	A4	0.000	
130	 H06	77.691	17.345	150.644	 H	4	A4	0.000	
131	 H07	77.970	20.883	145.643	 H	4	A4	0.000	
132	 H08	74.668	23.383	147.357	 H	4	A4	0.000	
133	 H09	74.142	22.590	148.826	 H	4	A4	0.000	
134	 H10	75.492	18.540	151.113	 H	4	A4	0.000	
135	 H11	80.647	20.098	144.370	 H	4	A4	0.000	
136	 H12	80.786	16.530	146.928	 H	4	A4	0.000	
137	   P	76.489	15.046	145.471	P.3	5	A5	0.000	
138	 C5'	73.927	15.291	145.915	C.3	5	A5	0.000	
139	 O5'	75.192	15.912	145.780	O.3	5	A5	0.000	
140	 C4'	73.459	15.335	147.348	C.3	5	A5	0.000	
141	 O4'	73.727	16.653	147.889	O.3	5	A5	0.000	
142	 C3'	71.964	15.111	147.542	C.3	5	A5	0.000	
143	 O3'	71.669	13.736	147.743	O.3	5	A5	0.000	
144	 C2'	71.628	15.956	148.768	C.3	5	A5	0.000	
145	 O2'	71.882	15.219	149.954	O.3	5	A5	0.000	
146	 C1'	72.649	17.094	148.675	C.3	5	A5	0.000	
147	  N1	69.079	20.931	148.783	N.2	5	A5	0.000	
148	  C2	69.193	19.796	149.474	C.2	5	A5	0.000	
149	  N3	70.122	18.850	149.398	N.2	5	A5	0.000	
150	  C4	71.051	19.140	148.484	C.2	5	A5	0.000	
151	  C5	71.064	20.269	147.680	C.2	5	A5	0.000	
152	  C6	70.017	21.204	147.854	C.2	5	A5	0.000	
153	  N6	69.882	22.342	147.161	N.pl3	5	A5	0.000	
154	  N7	72.161	20.240	146.832	N.2	5	A5	0.000	
155	  C8	72.765	19.117	147.139	C.2	5	A5	0.000	
156	  N9	72.141	18.374	148.116	N.pl3	5	A5	0.000	
157	 OP1	76.021	13.678	145.150	O.co2	5	A5	0.000	
158	 OP2	77.321	15.801	144.497	O.3	5	A5	0.000	
159	 H01	73.204	15.811	145.286	 H	5	A5	0.000	
160	 H02	73.995	14.526	147.844	 H	5	A5	0.000	
161	 H03	71.374	15.396	146.671	 H	5	A5	0.000	
162	 H04	70.587	16.278	148.796	 H	5	A5	0.000	
163	 H05	72.143	14.324	149.725	 H	5	A5	0.000	
164	 H06	72.932	17.324	149.702	 H	5	A5	0.000	
165	 H07	68.408	19.619	150.209	 H	5	A5	0.000	
166	 H08	69.102	22.956	147.346	 H	5	A5	0.000	
167	 H09	70.560	22.586	146.454	 H	5	A5	0.000	
168	 H10	73.689	18.797	146.658	 H	5	A5	0.000	
169	 H11	77.434	16.704	144.804	 H	5	A5	0.000	
170	 H12	74.015	14.249	145.608	 H	5	A5	0.000	
171	   P	71.286	12.770	146.513	P.3	6	A6	0.000	
172	 C5'	68.849	13.112	145.651	C.3	6	A6	0.000	
173	 O5'	70.191	13.560	145.680	O.3	6	A6	0.000	
174	 C4'	68.008	13.917	146.597	C.3	6	A6	0.000	
175	 O4'	68.792	15.015	147.112	O.3	6	A6	0.000	
176	 C3'	66.764	14.560	146.004	C.3	6	A6	0.000	
177	 O3'	65.647	13.709	146.066	O.3	6	A6	0.000	
178	 C2'	66.563	15.781	146.870	C.3	6	A6	0.000	
179	 O2'	65.872	15.423	148.057	O.3	6	A6	0.000	
180	 C1'	67.997	16.165	147.226	C.3	6	A6	0.000	
181	  N1	67.678	21.108	145.739	N.2	6	A6	0.000	
182	  C2	66.959	20.380	146.605	C.2	6	A6	0.000	
183	  N3	67.097	19.097	146.938	N.2	6	A6	0.000	
184	  C4	68.119	18.527	146.270	C.2	6	A6	0.000	
185	  C5	68.949	19.140	145.349	C.2	6	A6	0.000	
186	  C6	68.696	20.501	145.078	C.2	6	A6	0.000	
187	  N6	69.414	21.229	144.216	N.pl3	6	A6	0.000	
188	  N7	69.894	18.242	144.863	N.2	6	A6	0.000	
189	  C8	69.622	17.124	145.489	C.2	6	A6	0.000	
190	  N9	68.553	17.220	146.353	N.pl3	6	A6	0.000	
191	 OP1	70.589	11.597	147.091	O.co2	6	A6	0.000	
192	 OP2	72.463	12.604	145.628	O.3	6	A6	0.000	
193	 H01	68.456	13.219	144.640	 H	6	A6	0.000	
194	 H02	67.687	13.190	147.343	 H	6	A6	0.000	
195	 H03	66.879	14.791	144.945	 H	6	A6	0.000	
196	 H04	65.991	16.572	146.385	 H	6	A6	0.000	
197	 H05	65.803	16.189	148.631	 H	6	A6	0.000	
198	 H06	67.993	16.565	148.240	 H	6	A6	0.000	
199	 H07	66.150	20.911	147.106	 H	6	A6	0.000	
200	 H08	69.189	22.202	144.067	 H	6	A6	0.000	
201	 H09	70.181	20.805	143.714	 H	6	A6	0.000	
202	 H10	70.188	16.204	145.340	 H	6	A6	0.000	
203	 H11	72.663	13.440	145.200	 H	6	A6	0.000	
204	 H12	68.819	12.066	145.955	 H	6	A6	0.000	
205	   P	65.541	12.426	145.119	P.3	7	A7	0.000	
206	 C5'	63.356	12.541	143.746	C.3	7	A7	0.000	
207	 O5'	63.978	12.243	144.974	O.3	7	A7	0.000	
208	 C4'	62.670	13.879	143.782	C.3	7	A7	0.000	
209	 O4'	63.487	14.843	144.496	O.3	7	A7	0.000	
210	 C3'	62.456	14.500	142.415	C.3	7	A7	0.000	
211	 O3'	61.296	14.001	141.780	O.3	7	A7	0.000	
212	 C2'	62.414	15.986	142.719	C.3	7	A7	0.000	
213	 O2'	61.150	16.337	143.256	O.3	7	A7	0.000	
214	 C1'	63.447	16.086	143.838	C.3	7	A7	0.000	
215	  N1	66.698	19.862	142.763	N.2	7	A7	0.000	
216	  C2	65.447	19.839	143.234	C.2	7	A7	0.000	
217	  N3	64.659	18.803	143.491	N.2	7	A7	0.000	
218	  C4	65.305	17.664	143.215	C.2	7	A7	0.000	
219	  C5	66.589	17.520	142.726	C.2	7	A7	0.000	
220	  C6	67.311	18.700	142.498	C.2	7	A7	0.000	
221	  N6	68.555	18.750	142.037	N.pl3	7	A7	0.000	
222	  N7	66.903	16.180	142.566	N.2	7	A7	0.000	
223	  C8	65.809	15.563	142.946	C.2	7	A7	0.000	
224	  N9	64.797	16.403	143.339	N.pl3	7	A7	0.000	
225	 OP1	66.047	11.270	145.882	O.co2	7	A7	0.000	
226	 OP2	66.105	12.719	143.778	O.3	7	A7	0.000	
227	 H01	64.111	12.551	142.960	 H	7	A7	0.000	
228	 H02	61.709	13.678	144.256	 H	7	A7	0.000	
229	 H03	63.238	14.260	141.694	 H	7	A7	0.000	
230	 H04	62.592	16.620	141.851	 H	7	A7	0.000	
231	 H05	60.909	17.218	142.959	 H	7	A7	0.000	
232	 H06	63.152	16.896	144.505	 H	7	A7	0.000	
233	 H07	65.009	20.816	143.437	 H	7	A7	0.000	
234	 H08	69.007	19.643	141.898	 H	7	A7	0.000	
235	 H09	69.050	17.895	141.825	 H	7	A7	0.000	
236	 H10	65.712	14.477	142.949	 H	7	A7	0.000	
237	 H11	66.110	13.668	143.633	 H	7	A7	0.000	
238	 H12	62.603	11.778	143.552	 H	7	A7	0.000	
239	   P	61.400	12.682	140.864	P.3	8	A8	0.000	
240	 C5'	59.430	14.023	139.864	C.3	8	A8	0.000	
241	 O5'	60.130	12.796	139.916	O.3	8	A8	0.000	
242	 C4'	57.956	13.853	140.118	C.3	8	A8	0.000	
243	 O4'	57.543	14.840	141.097	O.3	8	A8	0.000	
244	 C3'	57.038	14.092	138.922	C.3	8	A8	0.000	
245	 O3'	56.917	12.960	138.067	O.3	8	A8	0.000	
246	 C2'	55.742	14.532	139.587	C.3	8	A8	0.000	
247	 O2'	55.049	13.411	140.115	O.3	8	A8	0.000	
248	 C1'	56.275	15.349	140.764	C.3	8	A8	0.000	
249	  N1	54.287	20.058	140.072	N.2	8	A8	0.000	
250	  C2	53.722	18.904	140.454	C.2	8	A8	0.000	
251	  N3	54.281	17.708	140.619	N.2	8	A8	0.000	
252	  C4	55.593	17.771	140.336	C.2	8	A8	0.000	
253	  C5	56.318	18.880	139.934	C.2	8	A8	0.000	
254	  C6	55.611	20.080	139.798	C.2	8	A8	0.000	
255	  N6	56.182	21.226	139.425	N.pl3	8	A8	0.000	
256	  N7	57.655	18.566	139.742	N.2	8	A8	0.000	
257	  C8	57.712	17.295	140.027	C.2	8	A8	0.000	
258	  N9	56.503	16.753	140.389	N.pl3	8	A8	0.000	
259	 OP1	61.180	11.499	141.739	O.co2	8	A8	0.000	
260	 OP2	62.641	12.807	140.040	O.3	8	A8	0.000	
261	 H01	59.841	14.694	140.619	 H	8	A8	0.000	
262	 H02	57.854	12.811	140.422	 H	8	A8	0.000	
263	 H03	57.416	14.839	138.223	 H	8	A8	0.000	
264	 H04	55.061	15.052	138.913	 H	8	A8	0.000	
265	 H05	54.930	13.524	141.061	 H	8	A8	0.000	
266	 H06	55.548	15.289	141.574	 H	8	A8	0.000	
267	 H07	52.652	18.952	140.659	 H	8	A8	0.000	
268	 H08	55.626	22.065	139.346	 H	8	A8	0.000	
269	 H09	57.171	21.255	139.221	 H	8	A8	0.000	
270	 H10	58.634	16.716	139.982	 H	8	A8	0.000	
271	 H11	62.853	13.735	139.918	 H	8	A8	0.000	
272	 H12	59.549	14.432	138.861	 H	8	A8	0.000	
273	   P	56.775	13.125	136.468	P.3	9	A9	0.000	
274	 C5'	54.825	14.588	135.416	C.3	9	A9	0.000	
275	 O5'	55.233	13.498	136.246	O.3	9	A9	0.000	
276	 C4'	53.590	15.286	135.950	C.3	9	A9	0.000	
277	 O4'	53.961	16.154	137.049	O.3	9	A9	0.000	
278	 C3'	52.830	16.206	134.989	C.3	9	A9	0.000	
279	 O3'	51.913	15.540	134.139	O.3	9	A9	0.000	
280	 C2'	52.136	17.182	135.922	C.3	9	A9	0.000	
281	 O2'	50.946	16.615	136.453	O.3	9	A9	0.000	
282	 C1'	53.166	17.323	137.035	C.3	9	A9	0.000	
283	  N1	53.526	22.450	136.805	N.2	9	A9	0.000	
284	  C2	52.479	21.631	136.984	C.2	9	A9	0.000	
285	  N3	52.443	20.302	137.030	N.2	9	A9	0.000	
286	  C4	53.679	19.806	136.875	C.2	9	A9	0.000	
287	  C5	54.847	20.514	136.670	C.2	9	A9	0.000	
288	  C6	54.753	21.910	136.643	C.2	9	A9	0.000	
289	  N6	55.799	22.717	136.460	N.pl3	9	A9	0.000	
290	  N7	55.928	19.660	136.544	N.2	9	A9	0.000	
291	  C8	55.400	18.469	136.662	C.2	9	A9	0.000	
292	  N9	54.045	18.487	136.836	N.pl3	9	A9	0.000	
293	 OP1	57.032	11.794	135.864	O.co2	9	A9	0.000	
294	 OP2	57.617	14.267	136.029	O.3	9	A9	0.000	
295	 H01	55.640	15.310	135.359	 H	9	A9	0.000	
296	 H02	52.939	14.449	136.200	 H	9	A9	0.000	
297	 H03	53.505	16.681	134.277	 H	9	A9	0.000	
298	 H04	51.845	18.115	135.440	 H	9	A9	0.000	
299	 H05	50.712	17.066	137.268	 H	9	A9	0.000	
300	 H06	52.635	17.465	137.976	 H	9	A9	0.000	
301	 H07	51.517	22.127	137.110	 H	9	A9	0.000	
302	 H08	55.668	23.718	136.447	 H	9	A9	0.000	
303	 H09	56.722	22.327	136.335	 H	9	A9	0.000	
304	 H10	55.985	17.550	136.625	 H	9	A9	0.000	
305	 H11	57.768	14.857	136.771	 H	9	A9	0.000	
306	 H12	54.582	14.185	134.433	 H	9	A9	0.000	
307	   P	51.477	16.188	132.731	P.3	10	A10	0.000	
308	 C5'	51.073	18.789	132.672	C.3	10	A10	0.000	
309	 O5'	50.668	17.505	133.120	O.3	10	A10	0.000	
310	 C4'	50.057	19.811	133.100	C.3	10	A10	0.000	
311	 O4'	50.580	20.563	134.224	O.3	10	A10	0.000	
312	 C3'	49.731	20.898	132.087	C.3	10	A10	0.000	
313	 O3'	48.934	20.448	130.986	O.3	10	A10	0.000	
314	 C2'	49.143	21.999	132.989	C.3	10	A10	0.000	
315	 O2'	47.816	21.703	133.439	O.3	10	A10	0.000	
316	 C1'	50.056	21.889	134.198	C.3	10	A10	0.000	
317	  N1	55.079	22.720	133.456	N.2	10	A10	0.000	
318	  C2	54.309	21.628	133.449	C.2	10	A10	0.000	
319	  N3	53.013	21.490	133.627	N.2	10	A10	0.000	
320	  C4	52.462	22.683	133.835	C.2	10	A10	0.000	
321	  C5	53.107	23.903	133.920	C.2	10	A10	0.000	
322	  C6	54.486	23.898	133.695	C.2	10	A10	0.000	
323	  N6	55.246	24.983	133.709	N.pl3	10	A10	0.000	
324	  N7	52.213	24.927	134.196	N.2	10	A10	0.000	
325	  C8	51.067	24.290	134.299	C.2	10	A10	0.000	
326	  N9	51.149	22.905	134.165	N.pl3	10	A10	0.000	
327	 OP1	50.454	15.307	132.138	O.co2	10	A10	0.000	
328	 OP2	52.684	16.515	131.943	O.3	10	A10	0.000	
329	 H01	52.043	19.036	133.104	 H	10	A10	0.000	
330	 H02	49.167	19.212	133.290	 H	10	A10	0.000	
331	 H03	50.584	21.268	131.518	 H	10	A10	0.000	
332	 H04	49.088	22.962	132.481	 H	10	A10	0.000	
333	 H05	47.557	22.337	134.112	 H	10	A10	0.000	
334	 H06	49.489	22.090	135.107	 H	10	A10	0.000	
335	 H07	54.844	20.696	133.265	 H	10	A10	0.000	
336	 H08	56.239	24.906	133.540	 H	10	A10	0.000	
337	 H09	54.833	25.887	133.888	 H	10	A10	0.000	
338	 H10	50.124	24.807	134.476	 H	10	A10	0.000	
339	 H11	52.893	17.446	132.048	 H	10	A10	0.000	
340	 H12	51.151	18.787	131.585	 H	10	A10	0.000	
341	   P	48.365	21.366	129.773	P.3	11	A11	0.000	
342	 C5'	48.762	23.837	129.978	C.3	11	A11	0.000	
343	 O5'	47.958	22.779	130.291	O.3	11	A11	0.000	
344	 C4'	48.292	25.168	130.463	C.3	11	A11	0.000	
345	 O4'	49.070	25.533	131.647	O.3	11	A11	0.000	
346	 C3'	48.663	26.192	129.412	C.3	11	A11	0.000	
347	 O3'	47.627	26.357	128.455	O.3	11	A11	0.000	
348	 C2'	49.033	27.402	130.224	C.3	11	A11	0.000	
349	 O2'	47.917	28.085	130.678	O.3	11	A11	0.000	
350	 C1'	49.693	26.765	131.439	C.3	11	A11	0.000	
351	  N1	54.694	28.396	130.960	N.2	11	A11	0.000	
352	  C2	53.552	29.118	131.054	C.2	11	A11	0.000	
353	  N3	52.281	28.690	131.151	N.2	11	A11	0.000	
354	  C4	52.214	27.346	131.162	C.2	11	A11	0.000	
355	  C5	53.313	26.503	131.091	C.2	11	A11	0.000	
356	  C6	54.605	27.043	130.965	C.2	11	A11	0.000	
357	  N6	55.712	26.285	130.877	N.pl3	11	A11	0.000	
358	  N7	52.930	25.181	131.131	N.2	11	A11	0.000	
359	  C8	51.640	25.213	131.226	C.2	11	A11	0.000	
360	  N9	51.124	26.485	131.251	N.pl3	11	A11	0.000	
361	 OP1	47.085	20.687	129.544	O.co2	11	A11	0.000	
362	 OP2	49.215	21.548	128.571	O.3	11	A11	0.000	
363	 H01	49.746	23.651	130.408	 H	11	A11	0.000	
364	 H02	47.222	25.134	130.669	 H	11	A11	0.000	
365	 H03	49.498	25.912	128.770	 H	11	A11	0.000	
366	 H04	49.634	28.111	129.655	 H	11	A11	0.000	
367	 H05	47.692	28.781	130.056	 H	11	A11	0.000	
368	 H06	49.593	27.464	132.269	 H	11	A11	0.000	
369	 H07	53.682	30.200	131.051	 H	11	A11	0.000	
370	 H08	56.619	26.723	130.797	 H	11	A11	0.000	
371	 H09	55.637	25.278	130.891	 H	11	A11	0.000	
372	 H10	51.022	24.316	131.281	 H	11	A11	0.000	
373	 H11	49.320	22.485	128.392	 H	11	A11	0.000	
374	 H12	48.763	23.899	128.890	 H	11	A11	0.000	
375	   P	47.896	27.073	127.038	P.3	12	A12	0.000	
376	 C5'	48.142	29.637	126.451	C.3	12	A12	0.000	
377	 O5'	47.597	28.629	127.292	O.3	12	A12	0.000	
378	 C4'	48.867	30.699	127.242	C.3	12	A12	0.000	
379	 O4'	49.969	30.114	128.023	O.3	12	A12	0.000	
380	 C3'	49.476	31.812	126.380	C.3	12	A12	0.000	
381	 O3'	49.188	33.092	126.943	O.3	12	A12	0.000	
382	 C2'	50.980	31.524	126.458	C.3	12	A12	0.000	
383	 O2'	51.822	32.646	126.272	O.3	12	A12	0.000	
384	 C1'	51.124	30.906	127.857	C.3	12	A12	0.000	
385	  N1	56.216	30.703	128.080	N.2	12	A12	0.000	
386	  C2	55.357	31.699	128.063	C.2	12	A12	0.000	
387	  N3	54.046	31.668	128.017	N.2	12	A12	0.000	
388	  C4	53.599	30.418	127.984	C.2	12	A12	0.000	
389	  C5	54.345	29.276	127.972	C.2	12	A12	0.000	
390	  C6	55.727	29.451	128.037	C.2	12	A12	0.000	
391	  N6	56.585	28.430	128.051	N.pl3	12	A12	0.000	
392	  N7	53.521	28.180	127.933	N.2	12	A12	0.000	
393	  C8	52.297	28.664	127.895	C.2	12	A12	0.000	
394	  N9	52.285	30.024	127.939	N.pl3	12	A12	0.000	
395	 OP1	46.900	26.447	126.124	O.co2	12	A12	0.000	
396	 OP2	49.356	26.918	126.756	O.3	12	A12	0.000	
397	 H01	48.842	29.175	125.755	 H	12	A12	0.000	
398	 H02	48.099	31.132	127.883	 H	12	A12	0.000	
399	 H03	49.089	31.829	125.361	 H	12	A12	0.000	
400	 H04	49.218	33.759	126.254	 H	12	A12	0.000	
401	 H05	51.307	30.877	125.644	 H	12	A12	0.000	
402	 H06	51.999	33.058	127.121	 H	12	A12	0.000	
403	 H07	51.244	31.685	128.609	 H	12	A12	0.000	
404	 H08	55.798	32.695	128.091	 H	12	A12	0.000	
405	 H09	57.579	28.606	128.096	 H	12	A12	0.000	
406	 H10	56.241	27.481	128.017	 H	12	A12	0.000	
407	 H11	51.400	28.048	127.835	 H	12	A12	0.000	
408	 H12	47.319	30.115	125.920	 H	12	A12	0.000	
409	 H13	49.633	27.586	126.124	 H	12	A12	0.000	
410	   P	59.969	32.589	144.427	P.3	13	G1	0.000	
411	 C5'	61.487	34.469	145.462	C.3	13	G1	0.000	
412	 O5'	61.010	33.793	144.310	O.3	13	G1	0.000	
413	 C4'	62.804	33.900	145.908	C.3	13	G1	0.000	
414	 O4'	62.626	33.249	147.193	O.3	13	G1	0.000	
415	 C3'	63.380	32.819	145.010	C.3	13	G1	0.000	
416	 O3'	64.088	33.348	143.893	O.3	13	G1	0.000	
417	 C2'	64.229	32.008	145.979	C.3	13	G1	0.000	
418	 O2'	65.441	32.689	146.258	O.3	13	G1	0.000	
419	 C1'	63.363	32.053	147.238	C.3	13	G1	0.000	
420	  N1	62.435	27.021	147.470	N.pl3	13	G1	0.000	
421	  C2	63.632	27.692	147.532	C.2	13	G1	0.000	
422	  N2	64.726	26.929	147.657	N.pl3	13	G1	0.000	
423	  N3	63.767	29.004	147.463	N.2	13	G1	0.000	
424	  C4	62.575	29.608	147.334	C.2	13	G1	0.000	
425	  C5	61.317	29.033	147.263	C.2	13	G1	0.000	
426	  C6	61.192	27.619	147.334	C.2	13	G1	0.000	
427	  O6	60.178	26.911	147.289	O.2	13	G1	0.000	
428	  N7	60.345	30.010	147.125	N.2	13	G1	0.000	
429	  C8	61.022	31.123	147.124	C.2	13	G1	0.000	
430	  N9	62.375	30.962	147.241	N.pl3	13	G1	0.000	
431	 OP1	60.687	31.319	144.125	O.2	13	G1	0.000	
432	 OP2	59.210	32.732	145.698	O.3	13	G1	0.000	
433	 H01	61.614	35.526	145.230	 H	13	G1	0.000	
434	 H02	63.481	34.754	145.911	 H	13	G1	0.000	
435	 H03	62.627	32.205	144.516	 H	13	G1	0.000	
436	 H04	64.486	31.014	145.613	 H	13	G1	0.000	
437	 H05	65.737	32.467	147.144	 H	13	G1	0.000	
438	 H06	64.008	31.971	148.113	 H	13	G1	0.000	
439	 H07	62.463	26.013	147.528	 H	13	G1	0.000	
440	 H08	65.639	27.359	147.703	 H	13	G1	0.000	
441	 H09	64.638	25.924	147.705	 H	13	G1	0.000	
442	 H10	60.549	32.101	147.037	 H	13	G1	0.000	
443	 H11	59.135	33.662	145.923	 H	13	G1	0.000	
444	 H14	60.762	34.342	146.266	 H	13	G1	0.000	
445	   P	64.059	32.633	142.442	P.3	14	G2	0.000	
446	 C5'	66.359	31.649	143.158	C.3	14	G2	0.000	
447	 O5'	65.066	31.426	142.629	O.3	14	G2	0.000	
448	 C4'	66.969	30.341	143.553	C.3	14	G2	0.000	
449	 O4'	66.291	29.798	144.717	O.3	14	G2	0.000	
450	 C3'	66.814	29.258	142.510	C.3	14	G2	0.000	
451	 O3'	67.743	29.374	141.468	O.3	14	G2	0.000	
452	 C2'	66.932	27.984	143.321	C.3	14	G2	0.000	
453	 O2'	68.289	27.685	143.602	O.3	14	G2	0.000	
454	 C1'	66.198	28.390	144.604	C.3	14	G2	0.000	
455	  N1	62.926	24.592	145.113	N.pl3	14	G2	0.000	
456	  C2	64.279	24.649	145.345	C.2	14	G2	0.000	
457	  N2	64.884	23.538	145.772	N.pl3	14	G2	0.000	
458	  N3	65.013	25.725	145.171	N.2	14	G2	0.000	
459	  C4	64.283	26.760	144.721	C.2	14	G2	0.000	
460	  C5	62.932	26.825	144.464	C.2	14	G2	0.000	
461	  C6	62.142	25.651	144.660	C.2	14	G2	0.000	
462	  O6	60.925	25.478	144.481	O.2	14	G2	0.000	
463	  N7	62.599	28.108	144.035	N.2	14	G2	0.000	
464	  C8	63.724	28.775	144.056	C.2	14	G2	0.000	
465	  N9	64.777	28.017	144.502	N.pl3	14	G2	0.000	
466	 OP1	64.662	33.590	141.487	O.co2	14	G2	0.000	
467	 OP2	62.746	32.029	142.107	O.3	14	G2	0.000	
468	 H01	66.983	32.129	142.404	 H	14	G2	0.000	
469	 H02	68.021	30.574	143.717	 H	14	G2	0.000	
470	 H03	65.868	29.305	141.970	 H	14	G2	0.000	
471	 H04	66.535	27.098	142.826	 H	14	G2	0.000	
472	 H05	68.624	27.070	142.945	 H	14	G2	0.000	
473	 H06	66.638	27.892	145.468	 H	14	G2	0.000	
474	 H07	62.462	23.711	145.285	 H	14	G2	0.000	
475	 H08	65.878	23.542	145.952	 H	14	G2	0.000	
476	 H09	64.348	22.694	145.915	 H	14	G2	0.000	
477	 H10	63.815	29.818	143.753	 H	14	G2	0.000	
478	 H11	62.440	31.498	142.846	 H	14	G2	0.000	
479	 H12	66.287	32.295	144.033	 H	14	G2	0.000	
480	   P	67.295	28.866	140.034	P.3	15	G3	0.000	
481	 C5'	66.527	26.409	140.090	C.3	15	G3	0.000	
482	 O5'	67.594	27.318	140.148	O.3	15	G3	0.000	
483	 C4'	66.834	25.161	140.852	C.3	15	G3	0.000	
484	 O4'	66.060	25.195	142.073	O.3	15	G3	0.000	
485	 C3'	66.402	23.886	140.152	C.3	15	G3	0.000	
486	 O3'	67.390	23.404	139.261	O.3	15	G3	0.000	
487	 C2'	66.099	22.962	141.311	C.3	15	G3	0.000	
488	 O2'	67.305	22.450	141.855	O.3	15	G3	0.000	
489	 C1'	65.483	23.943	142.309	C.3	15	G3	0.000	
490	  N1	60.696	22.191	142.610	N.pl3	15	G3	0.000	
491	  C2	61.854	21.550	142.982	C.2	15	G3	0.000	
492	  N2	61.723	20.309	143.478	N.pl3	15	G3	0.000	
493	  N3	63.053	22.096	142.857	N.2	15	G3	0.000	
494	  C4	62.993	23.338	142.329	C.2	15	G3	0.000	
495	  C5	61.894	24.060	141.924	C.2	15	G3	0.000	
496	  C6	60.621	23.475	142.062	C.2	15	G3	0.000	
497	  O6	59.532	23.973	141.760	O.2	15	G3	0.000	
498	  N7	62.239	25.307	141.445	N.2	15	G3	0.000	
499	  C8	63.529	25.319	141.558	C.2	15	G3	0.000	
500	  N9	64.049	24.157	142.069	N.pl3	15	G3	0.000	
501	 OP1	68.149	29.449	138.965	O.co2	15	G3	0.000	
502	 OP2	65.810	29.040	140.024	O.3	15	G3	0.000	
503	 H01	65.639	26.876	140.515	 H	15	G3	0.000	
504	 H02	67.916	25.141	140.986	 H	15	G3	0.000	
505	 H03	65.541	24.008	139.495	 H	15	G3	0.000	
506	 H04	65.477	22.105	141.051	 H	15	G3	0.000	
507	 H05	67.614	21.717	141.317	 H	15	G3	0.000	
508	 H06	65.646	23.538	143.308	 H	15	G3	0.000	
509	 H07	59.828	21.693	142.744	 H	15	G3	0.000	
510	 H08	62.541	19.790	143.763	 H	15	G3	0.000	
511	 H09	60.806	19.895	143.566	 H	15	G3	0.000	
512	 H10	64.144	26.173	141.274	 H	15	G3	0.000	
513	 H11	65.487	28.987	139.122	 H	15	G3	0.000	
514	 H12	66.360	26.142	139.047	 H	15	G3	0.000	
515	   P	66.978	22.866	137.809	P.3	16	U4	0.000	
516	 C5'	67.182	20.408	138.660	C.3	16	U4	0.000	
517	 O5'	66.376	21.409	138.060	O.3	16	U4	0.000	
518	 C4'	66.399	19.201	139.124	C.3	16	U4	0.000	
519	 O4'	65.459	19.547	140.173	O.3	16	U4	0.000	
520	 C3'	65.546	18.481	138.099	C.3	16	U4	0.000	
521	 O3'	66.308	17.667	137.227	O.3	16	U4	0.000	
522	 C2'	64.600	17.682	138.985	C.3	16	U4	0.000	
523	 O2'	65.257	16.535	139.512	O.3	16	U4	0.000	
524	 C1'	64.355	18.668	140.127	C.3	16	U4	0.000	
525	  N1	63.091	19.429	139.966	N.pl3	16	U4	0.000	
526	  C2	63.071	20.815	139.805	C.2	16	U4	0.000	
527	  O2	64.036	21.544	139.745	O.2	16	U4	0.000	
528	  N3	61.830	21.378	139.685	N.pl3	16	U4	0.000	
529	  C4	60.619	20.731	139.714	C.2	16	U4	0.000	
530	  O4	59.594	21.410	139.586	O.2	16	U4	0.000	
531	  C5	60.710	19.308	139.898	C.2	16	U4	0.000	
532	  C6	61.908	18.726	140.018	C.2	16	U4	0.000	
533	 OP1	68.234	22.739	137.034	O.co2	16	U4	0.000	
534	 OP2	65.887	23.741	137.308	O.3	16	U4	0.000	
535	 H01	67.924	20.080	137.932	 H	16	U4	0.000	
536	 H02	67.212	18.542	139.429	 H	16	U4	0.000	
537	 H03	65.031	19.151	137.410	 H	16	U4	0.000	
538	 H04	63.708	17.330	138.467	 H	16	U4	0.000	
539	 H05	65.444	15.918	138.801	 H	16	U4	0.000	
540	 H06	64.252	18.113	141.059	 H	16	U4	0.000	
541	 H07	61.801	22.380	139.561	 H	16	U4	0.000	
542	 H08	59.803	18.704	139.940	 H	16	U4	0.000	
543	 H09	61.950	17.647	140.164	 H	16	U4	0.000	
544	 H10	65.619	23.450	136.433	 H	16	U4	0.000	
545	 H12	67.639	20.852	139.544	 H	16	U4	0.000	
546	   P	65.951	17.625	135.663	P.3	17	U5	0.000	
547	 C5'	64.438	15.612	136.321	C.3	17	U5	0.000	
548	 O5'	64.579	16.837	135.629	O.3	17	U5	0.000	
549	 C4'	62.993	15.218	136.384	C.3	17	U5	0.000	
550	 O4'	62.271	16.036	137.343	O.3	17	U5	0.000	
551	 C3'	62.219	15.417	135.100	C.3	17	U5	0.000	
552	 O3'	62.487	14.435	134.123	O.3	17	U5	0.000	
553	 C2'	60.778	15.437	135.589	C.3	17	U5	0.000	
554	 O2'	60.314	14.123	135.852	O.3	17	U5	0.000	
555	 C1'	60.927	16.197	136.910	C.3	17	U5	0.000	
556	  N1	60.595	17.640	136.757	N.pl3	17	U5	0.000	
557	  C2	59.261	18.015	136.892	C.2	17	U5	0.000	
558	  O2	58.369	17.216	137.142	O.2	17	U5	0.000	
559	  N3	59.009	19.364	136.722	N.pl3	17	U5	0.000	
560	  C4	59.924	20.361	136.438	C.2	17	U5	0.000	
561	  O4	59.556	21.528	136.319	O.2	17	U5	0.000	
562	  C5	61.271	19.901	136.309	C.2	17	U5	0.000	
563	  C6	61.549	18.595	136.467	C.2	17	U5	0.000	
564	 OP1	66.954	16.815	134.936	O.co2	17	U5	0.000	
565	 OP2	65.703	19.017	135.225	O.3	17	U5	0.000	
566	 H01	65.001	14.837	135.801	 H	17	U5	0.000	
567	 H02	63.043	14.159	136.639	 H	17	U5	0.000	
568	 H03	62.493	16.327	134.566	 H	17	U5	0.000	
569	 H04	60.076	15.871	134.877	 H	17	U5	0.000	
570	 H05	60.235	13.995	136.800	 H	17	U5	0.000	
571	 H06	60.230	15.796	137.646	 H	17	U5	0.000	
572	 H07	58.046	19.654	136.816	 H	17	U5	0.000	
573	 H08	62.070	20.607	136.083	 H	17	U5	0.000	
574	 H09	62.585	18.272	136.360	 H	17	U5	0.000	
575	 H10	65.565	19.034	134.275	 H	17	U5	0.000	
576	 H11	64.819	15.730	137.335	 H	17	U5	0.000	
577	   P	62.102	14.730	132.600	P.3	18	U6	0.000	
578	 C5'	59.678	15.022	131.566	C.3	18	U6	0.000	
579	 O5'	60.508	14.664	132.662	O.3	18	U6	0.000	
580	 C4'	58.228	15.086	131.996	C.3	18	U6	0.000	
581	 O4'	58.121	15.825	133.244	O.3	18	U6	0.000	
582	 C3'	57.275	15.804	131.050	C.3	18	U6	0.000	
583	 O3'	56.787	14.973	130.022	O.3	18	U6	0.000	
584	 C2'	56.166	16.276	131.975	C.3	18	U6	0.000	
585	 O2'	55.266	15.214	132.260	O.3	18	U6	0.000	
586	 C1'	56.952	16.619	133.239	C.3	18	U6	0.000	
587	  N1	57.342	18.049	133.273	N.pl3	18	U6	0.000	
588	  C2	56.371	18.958	133.613	C.2	18	U6	0.000	
589	  O2	55.222	18.649	133.870	O.2	18	U6	0.000	
590	  N3	56.797	20.256	133.623	N.pl3	18	U6	0.000	
591	  C4	58.040	20.759	133.348	C.2	18	U6	0.000	
592	  O4	58.223	21.979	133.414	O.2	18	U6	0.000	
593	  C5	58.994	19.752	133.015	C.2	18	U6	0.000	
594	  C6	58.623	18.470	132.992	C.2	18	U6	0.000	
595	 OP1	62.590	13.563	131.831	O.co2	18	U6	0.000	
596	 OP2	62.582	16.089	132.205	O.3	18	U6	0.000	
597	 H01	59.984	15.997	131.187	 H	18	U6	0.000	
598	 H02	57.939	14.036	132.049	 H	18	U6	0.000	
599	 H03	57.762	16.615	130.509	 H	18	U6	0.000	
600	 H04	55.569	17.091	131.565	 H	18	U6	0.000	
601	 H05	55.080	15.195	133.202	 H	18	U6	0.000	
602	 H06	56.326	16.425	134.110	 H	18	U6	0.000	
603	 H07	56.096	20.941	133.868	 H	18	U6	0.000	
604	 H08	60.022	20.028	132.780	 H	18	U6	0.000	
605	 H09	59.371	17.719	132.738	 H	18	U6	0.000	
606	 H10	62.644	16.646	132.984	 H	18	U6	0.000	
607	 H11	59.781	14.268	130.786	 H	18	U6	0.000	
608	   P	57.116	15.323	128.501	P.3	19	U7	0.000	
609	 C5'	55.740	17.520	128.250	C.3	19	U7	0.000	
610	 O5'	55.832	16.126	128.021	O.3	19	U7	0.000	
611	 C4'	54.460	17.888	128.949	C.3	19	U7	0.000	
612	 O4'	54.759	18.567	130.194	O.3	19	U7	0.000	
613	 C3'	53.587	18.866	128.185	C.3	19	U7	0.000	
614	 O3'	52.772	18.202	127.256	O.3	19	U7	0.000	
615	 C2'	52.827	19.595	129.278	C.3	19	U7	0.000	
616	 O2'	51.715	18.829	129.728	O.3	19	U7	0.000	
617	 C1'	53.882	19.657	130.379	C.3	19	U7	0.000	
618	  N1	54.678	20.898	130.298	N.pl3	19	U7	0.000	
619	  C2	54.030	22.101	130.494	C.2	19	U7	0.000	
620	  O2	52.844	22.196	130.764	O.2	19	U7	0.000	
621	  N3	54.834	23.207	130.422	N.pl3	19	U7	0.000	
622	  C4	56.183	23.236	130.150	C.2	19	U7	0.000	
623	  O4	56.757	24.330	130.101	O.2	19	U7	0.000	
624	  C5	56.771	21.944	129.948	C.2	19	U7	0.000	
625	  C6	56.019	20.847	130.024	C.2	19	U7	0.000	
626	 OP1	57.156	14.046	127.738	O.co2	19	U7	0.000	
627	 OP2	58.296	16.231	128.512	O.3	19	U7	0.000	
628	 H01	56.582	17.833	128.867	 H	19	U7	0.000	
629	 H02	53.934	16.941	129.068	 H	19	U7	0.000	
630	 H03	54.145	19.569	127.566	 H	19	U7	0.000	
631	 H04	52.423	20.558	128.965	 H	19	U7	0.000	
632	 H05	51.492	19.085	130.626	 H	19	U7	0.000	
633	 H06	53.381	19.628	131.347	 H	19	U7	0.000	
634	 H07	54.389	24.099	130.586	 H	19	U7	0.000	
635	 H08	57.836	21.859	129.732	 H	19	U7	0.000	
636	 H09	56.487	19.876	129.863	 H	19	U7	0.000	
637	 H10	58.551	16.415	129.419	 H	19	U7	0.000	
638	 H11	55.755	18.024	127.283	 H	19	U7	0.000	
639	   P	52.960	18.531	125.706	P.3	20	U8	0.000	
640	 C5'	52.438	20.909	124.715	C.3	20	U8	0.000	
641	 O5'	53.160	20.103	125.646	O.3	20	U8	0.000	
642	 C4'	51.625	21.939	125.452	C.3	20	U8	0.000	
643	 O4'	52.252	22.154	126.736	O.3	20	U8	0.000	
644	 C3'	51.572	23.331	124.832	C.3	20	U8	0.000	
645	 O3'	50.664	23.479	123.744	O.3	20	U8	0.000	
646	 C2'	51.325	24.216	126.043	C.3	20	U8	0.000	
647	 O2'	49.980	24.132	126.479	O.3	20	U8	0.000	
648	 C1'	52.187	23.512	127.088	C.3	20	U8	0.000	
649	  N1	53.563	24.037	127.109	N.pl3	20	U8	0.000	
650	  C2	53.720	25.171	127.835	C.2	20	U8	0.000	
651	  O2	52.820	25.696	128.446	O.2	20	U8	0.000	
652	  N3	54.968	25.676	127.871	N.pl3	20	U8	0.000	
653	  C4	56.063	25.199	127.229	C.2	20	U8	0.000	
654	  O4	57.098	25.831	127.391	O.2	20	U8	0.000	
655	  C5	55.842	24.021	126.446	C.2	20	U8	0.000	
656	  C6	54.610	23.497	126.412	C.2	20	U8	0.000	
657	 OP1	51.688	18.275	124.998	O.co2	20	U8	0.000	
658	 OP2	54.251	17.903	125.323	O.3	20	U8	0.000	
659	 H01	53.140	21.411	124.049	 H	20	U8	0.000	
660	 H02	50.614	21.533	125.460	 H	20	U8	0.000	
661	 H03	52.487	23.602	124.306	 H	20	U8	0.000	
662	 H04	51.537	25.269	125.856	 H	20	U8	0.000	
663	 H05	49.720	24.965	126.880	 H	20	U8	0.000	
664	 H06	51.743	23.671	128.071	 H	20	U8	0.000	
665	 H07	55.103	26.501	128.438	 H	20	U8	0.000	
666	 H08	56.659	23.561	125.890	 H	20	U8	0.000	
667	 H09	54.435	22.608	125.807	 H	20	U8	0.000	
668	 H10	54.505	18.201	124.446	 H	20	U8	0.000	
669	 H11	51.770	20.274	124.133	 H	20	U8	0.000	
670	   P	51.127	24.248	122.403	P.3	21	C9	0.000	
671	 C5'	50.097	26.525	123.183	C.3	21	C9	0.000	
672	 O5'	51.258	25.766	122.864	O.3	21	C9	0.000	
673	 C4'	50.436	27.977	123.408	C.3	21	C9	0.000	
674	 O4'	51.256	28.077	124.603	O.3	21	C9	0.000	
675	 C3'	51.286	28.615	122.316	C.3	21	C9	0.000	
676	 O3'	50.542	29.074	121.196	O.3	21	C9	0.000	
677	 C2'	52.030	29.707	123.065	C.3	21	C9	0.000	
678	 O2'	51.198	30.847	123.271	O.3	21	C9	0.000	
679	 C1'	52.289	29.012	124.404	C.3	21	C9	0.000	
680	  N1	53.563	28.261	124.417	N.pl3	21	C9	0.000	
681	  C2	54.765	28.955	124.422	C.2	21	C9	0.000	
682	  O2	54.725	30.199	124.410	O.2	21	C9	0.000	
683	  N3	55.939	28.271	124.434	N.2	21	C9	0.000	
684	  C4	55.943	26.943	124.441	C.2	21	C9	0.000	
685	  N4	57.111	26.311	124.441	N.pl3	21	C9	0.000	
686	  C5	54.725	26.216	124.438	C.2	21	C9	0.000	
687	  C6	53.573	26.899	124.437	C.2	21	C9	0.000	
688	 OP1	50.035	24.160	121.395	O.co2	21	C9	0.000	
689	 OP2	52.496	23.813	122.053	O.3	21	C9	0.000	
690	 H01	49.385	26.449	122.361	 H	21	C9	0.000	
691	 H02	49.474	28.487	123.454	 H	21	C9	0.000	
692	 H03	51.960	27.905	121.836	 H	21	C9	0.000	
693	 H04	52.917	30.074	122.549	 H	21	C9	0.000	
694	 H05	51.026	31.274	122.429	 H	21	C9	0.000	
695	 H06	52.334	29.779	125.178	 H	21	C9	0.000	
696	 H07	57.139	25.301	124.443	 H	21	C9	0.000	
697	 H08	57.971	26.840	124.439	 H	21	C9	0.000	
698	 H09	54.727	25.126	124.437	 H	21	C9	0.000	
699	 H10	52.628	26.356	124.452	 H	21	C9	0.000	
700	 H11	49.667	26.126	124.102	 H	21	C9	0.000	
701	 H12	52.765	24.231	121.232	 H	21	C9	0.000	
702	   P	51.226	29.029	119.748	P.3	22	C10	0.000	
703	 C5'	52.129	31.450	120.154	C.3	22	C10	0.000	
704	 O5'	52.408	30.083	119.904	O.3	22	C10	0.000	
705	 C4'	53.373	32.216	120.525	C.3	22	C10	0.000	
706	 O4'	54.050	31.613	121.658	O.3	22	C10	0.000	
707	 C3'	54.447	32.255	119.468	C.3	22	C10	0.000	
708	 O3'	54.177	33.133	118.407	O.3	22	C10	0.000	
709	 C2'	55.680	32.622	120.272	C.3	22	C10	0.000	
710	 O2'	55.664	33.989	120.641	O.3	22	C10	0.000	
711	 C1'	55.445	31.810	121.530	C.3	22	C10	0.000	
712	  N1	56.094	30.492	121.449	N.pl3	22	C10	0.000	
713	  C2	57.491	30.426	121.484	C.2	22	C10	0.000	
714	  O2	58.157	31.475	121.532	O.2	22	C10	0.000	
715	  N3	58.081	29.206	121.426	N.2	22	C10	0.000	
716	  C4	57.335	28.093	121.371	C.2	22	C10	0.000	
717	  N4	57.980	26.919	121.331	N.pl3	22	C10	0.000	
718	  C5	55.901	28.140	121.351	C.2	22	C10	0.000	
719	  C6	55.329	29.354	121.392	C.2	22	C10	0.000	
720	 OP1	50.248	29.531	118.742	O.co2	22	C10	0.000	
721	 OP2	51.859	27.686	119.594	O.3	22	C10	0.000	
722	 H01	51.696	31.892	119.257	 H	22	C10	0.000	
723	 H02	52.979	33.215	120.710	 H	22	C10	0.000	
724	 H03	54.550	31.310	118.935	 H	22	C10	0.000	
725	 H04	56.613	32.443	119.738	 H	22	C10	0.000	
726	 H05	56.358	34.456	120.171	 H	22	C10	0.000	
727	 H06	55.863	32.346	122.382	 H	22	C10	0.000	
728	 H07	57.456	26.056	121.288	 H	22	C10	0.000	
729	 H08	58.990	26.897	121.344	 H	22	C10	0.000	
730	 H09	55.302	27.230	121.305	 H	22	C10	0.000	
731	 H10	54.242	29.437	121.380	 H	22	C10	0.000	
732	 H11	51.983	27.495	118.661	 H	22	C10	0.000	
733	 H13	51.434	31.506	120.992	 H	22	C10	0.000	
734	   P	54.681	32.707	116.953	P.3	23	U11	0.000	
735	 C5'	56.730	34.279	117.325	C.3	23	U11	0.000	
736	 O5'	56.242	32.993	117.001	O.3	23	U11	0.000	
737	 C4'	58.230	34.271	117.382	C.3	23	U11	0.000	
738	 O4'	58.685	33.378	118.431	O.3	23	U11	0.000	
739	 C3'	58.917	33.745	116.134	C.3	23	U11	0.000	
740	 O3'	58.992	34.710	115.102	O.3	23	U11	0.000	
741	 C2'	60.276	33.308	116.657	C.3	23	U11	0.000	
742	 O2'	61.150	34.418	116.790	O.3	23	U11	0.000	
743	 C1'	59.920	32.801	118.056	C.3	23	U11	0.000	
744	  N1	59.828	31.327	118.106	N.pl3	23	U11	0.000	
745	  C2	61.028	30.644	118.081	C.2	23	U11	0.000	
746	  O2	62.112	31.197	117.992	O.2	23	U11	0.000	
747	  N3	60.922	29.279	118.127	N.pl3	23	U11	0.000	
748	  C4	59.761	28.541	118.219	C.2	23	U11	0.000	
749	  O4	59.829	27.308	118.257	O.2	23	U11	0.000	
750	  C5	58.563	29.330	118.259	C.2	23	U11	0.000	
751	  C6	58.631	30.666	118.210	C.2	23	U11	0.000	
752	 OP1	54.088	33.647	115.973	O.co2	23	U11	0.000	
753	 OP2	54.513	31.234	116.829	O.3	23	U11	0.000	
754	 H01	56.403	34.990	116.566	 H	23	U11	0.000	
755	 H02	58.486	35.320	117.532	 H	23	U11	0.000	
756	 H03	58.374	32.931	115.654	 H	23	U11	0.000	
757	 H04	60.774	32.587	116.009	 H	23	U11	0.000	
758	 H05	61.357	34.554	117.718	 H	23	U11	0.000	
759	 H06	60.711	33.091	118.748	 H	23	U11	0.000	
760	 H07	61.786	28.758	118.090	 H	23	U11	0.000	
761	 H08	57.593	28.839	118.330	 H	23	U11	0.000	
762	 H09	57.709	31.245	118.254	 H	23	U11	0.000	
763	 H10	54.445	30.844	117.704	 H	23	U11	0.000	
764	 H12	56.341	34.569	118.301	 H	23	U11	0.000	
765	   P	58.955	34.249	113.568	P.3	24	U12	0.000	
766	 C5'	61.514	34.440	113.053	C.3	24	U12	0.000	
767	 O5'	60.384	33.612	113.252	O.3	24	U12	0.000	
768	 C4'	62.779	33.641	112.888	C.3	24	U12	0.000	
769	 O4'	63.011	32.833	114.063	O.3	24	U12	0.000	
770	 C3'	62.808	32.636	111.757	C.3	24	U12	0.000	
771	 O3'	63.023	33.215	110.485	O.3	24	U12	0.000	
772	 C2'	63.907	31.683	112.205	C.3	24	U12	0.000	
773	 O2'	65.203	32.228	112.006	O.3	24	U12	0.000	
774	 C1'	63.644	31.632	113.700	C.3	24	U12	0.000	
775	  N1	62.721	30.535	114.003	N.pl3	24	U12	0.000	
776	  C2	63.313	29.308	114.045	C.2	24	U12	0.000	
777	  O2	64.520	29.175	113.849	O.2	24	U12	0.000	
778	  N3	62.430	28.284	114.310	N.pl3	24	U12	0.000	
779	  C4	61.065	28.380	114.526	C.2	24	U12	0.000	
780	  O4	60.411	27.362	114.757	O.2	24	U12	0.000	
781	  C5	60.538	29.707	114.457	C.2	24	U12	0.000	
782	  C6	61.371	30.718	114.199	C.2	24	U12	0.000	
783	 OP1	58.759	35.500	112.777	O.co2	24	U12	0.000	
784	 OP2	57.990	33.121	113.461	O.3	24	U12	0.000	
785	 H01	61.357	35.040	112.157	 H	24	U12	0.000	
786	 H02	63.519	34.417	112.691	 H	24	U12	0.000	
787	 H03	61.853	32.136	111.598	 H	24	U12	0.000	
788	 H04	63.890	30.733	111.670	 H	24	U12	0.000	
789	 H05	65.476	32.701	112.795	 H	24	U12	0.000	
790	 H06	64.582	31.488	114.237	 H	24	U12	0.000	
791	 H07	62.824	27.355	114.352	 H	24	U12	0.000	
792	 H08	59.475	29.890	114.612	 H	24	U12	0.000	
793	 H09	60.966	31.728	114.141	 H	24	U12	0.000	
794	 H10	57.776	32.798	114.339	 H	24	U12	0.000	
795	 H11	61.628	35.070	113.935	 H	24	U12	0.000	
796	   P	62.312	32.590	109.187	P.3	25	C13	0.000	
797	 C5'	64.415	31.097	108.652	C.3	25	C13	0.000	
798	 O5'	63.039	31.178	109.000	O.3	25	C13	0.000	
799	 C4'	64.963	29.710	108.877	C.3	25	C13	0.000	
800	 O4'	64.644	29.278	110.219	O.3	25	C13	0.000	
801	 C3'	64.408	28.583	108.027	C.3	25	C13	0.000	
802	 O3'	64.889	28.558	106.695	O.3	25	C13	0.000	
803	 C2'	64.800	27.359	108.840	C.3	25	C13	0.000	
804	 O2'	66.184	27.075	108.698	O.3	25	C13	0.000	
805	 C1'	64.548	27.867	110.255	C.3	25	C13	0.000	
806	  N1	63.194	27.505	110.701	N.pl3	25	C13	0.000	
807	  C2	62.954	26.194	111.110	C.2	25	C13	0.000	
808	  O2	63.893	25.394	111.116	O.2	25	C13	0.000	
809	  N3	61.707	25.843	111.514	N.2	25	C13	0.000	
810	  C4	60.713	26.746	111.494	C.2	25	C13	0.000	
811	  N4	59.495	26.370	111.883	N.pl3	25	C13	0.000	
812	  C5	60.927	28.092	111.065	C.2	25	C13	0.000	
813	  C6	62.173	28.420	110.670	C.2	25	C13	0.000	
814	 OP1	62.591	33.479	108.020	O.co2	25	C13	0.000	
815	 OP2	60.910	32.298	109.593	O.3	25	C13	0.000	
816	 H01	64.531	31.358	107.600	 H	25	C13	0.000	
817	 H02	66.017	29.846	108.634	 H	25	C13	0.000	
818	 H03	63.335	28.672	107.855	 H	25	C13	0.000	
819	 H04	64.267	26.452	108.556	 H	25	C13	0.000	
820	 H05	66.479	27.347	107.826	 H	25	C13	0.000	
821	 H06	65.272	27.427	110.940	 H	25	C13	0.000	
822	 H07	58.734	27.034	111.874	 H	25	C13	0.000	
823	 H08	59.333	25.421	112.187	 H	25	C13	0.000	
824	 H09	60.118	28.822	111.058	 H	25	C13	0.000	
825	 H10	62.373	29.432	110.319	 H	25	C13	0.000	
826	 H11	64.969	31.789	109.286	 H	25	C13	0.000	
827	 H12	60.644	32.906	110.286	 H	25	C13	0.000	
828	   P	63.956	27.975	105.523	P.3	26	G14	0.000	
829	 C5'	65.204	25.678	105.637	C.3	26	G14	0.000	
830	 O5'	63.988	26.393	105.752	O.3	26	G14	0.000	
831	 C4'	65.067	24.226	106.030	C.3	26	G14	0.000	
832	 O4'	64.481	24.108	107.344	O.3	26	G14	0.000	
833	 C3'	64.180	23.357	105.171	C.3	26	G14	0.000	
834	 O3'	64.802	22.944	103.989	O.3	26	G14	0.000	
835	 C2'	63.866	22.190	106.085	C.3	26	G14	0.000	
836	 O2'	64.941	21.270	106.085	O.3	26	G14	0.000	
837	 C1'	63.802	22.874	107.450	C.3	26	G14	0.000	
838	  N1	59.675	20.902	109.690	N.pl3	26	G14	0.000	
839	  C2	60.881	20.318	109.433	C.2	26	G14	0.000	
840	  N2	60.981	19.050	109.828	N.pl3	26	G14	0.000	
841	  N3	61.893	20.932	108.844	N.2	26	G14	0.000	
842	  C4	61.588	22.209	108.519	C.2	26	G14	0.000	
843	  C5	60.407	22.889	108.725	C.2	26	G14	0.000	
844	  C6	59.341	22.212	109.367	C.2	26	G14	0.000	
845	  O6	58.216	22.649	109.644	O.2	26	G14	0.000	
846	  N7	60.472	24.192	108.253	N.2	26	G14	0.000	
847	  C8	61.678	24.274	107.767	C.2	26	G14	0.000	
848	  N9	62.412	23.113	107.894	N.pl3	26	G14	0.000	
849	 OP1	64.640	28.279	104.240	O.co2	26	G14	0.000	
850	 OP2	62.587	28.500	105.780	O.3	26	G14	0.000	
851	 H01	65.543	25.729	104.602	 H	26	G14	0.000	
852	 H02	66.096	23.879	105.937	 H	26	G14	0.000	
853	 H03	63.293	23.884	104.820	 H	26	G14	0.000	
854	 H04	62.968	21.639	105.804	 H	26	G14	0.000	
855	 H05	65.185	21.062	105.180	 H	26	G14	0.000	
856	 H06	64.265	22.222	108.191	 H	26	G14	0.000	
857	 H07	58.972	20.340	110.149	 H	26	G14	0.000	
858	 H08	61.840	18.541	109.678	 H	26	G14	0.000	
859	 H09	60.198	18.598	110.277	 H	26	G14	0.000	
860	 H10	62.071	25.178	107.302	 H	26	G14	0.000	
861	 H11	62.317	29.061	105.050	 H	26	G14	0.000	
862	 H13	65.920	26.137	106.318	 H	26	G14	0.000	
863	   P	63.895	22.655	102.710	P.3	27	A15	0.000	
864	 C5'	62.494	24.881	102.440	C.3	27	A15	0.000	
865	 O5'	62.587	23.542	102.931	O.3	27	A15	0.000	
866	 C4'	61.333	25.041	101.488	C.3	27	A15	0.000	
867	 O4'	61.637	24.291	100.290	O.3	27	A15	0.000	
868	 C3'	59.993	24.505	101.989	C.3	27	A15	0.000	
869	 O3'	58.931	25.219	101.355	O.3	27	A15	0.000	
870	 C2'	59.984	23.090	101.436	C.3	27	A15	0.000	
871	 O2'	58.702	22.538	101.258	O.3	27	A15	0.000	
872	 C1'	60.661	23.291	100.097	C.3	27	A15	0.000	
873	  N1	62.219	20.855	95.957	N.2	27	A15	0.000	
874	  C2	61.610	22.006	96.142	C.2	27	A15	0.000	
875	  N3	61.247	22.561	97.279	N.2	27	A15	0.000	
876	  C4	61.573	21.806	98.322	C.2	27	A15	0.000	
877	  C5	62.207	20.605	98.309	C.2	27	A15	0.000	
878	  C6	62.543	20.140	97.039	C.2	27	A15	0.000	
879	  N6	63.153	18.987	96.805	N.pl3	27	A15	0.000	
880	  N7	62.387	20.120	99.603	N.2	27	A15	0.000	
881	  C8	61.840	21.046	100.355	C.2	27	A15	0.000	
882	  N9	61.326	22.089	99.624	N.pl3	27	A15	0.000	
883	 OP1	63.410	21.249	102.778	O.co2	27	A15	0.000	
884	 OP2	64.666	23.215	101.575	O.3	27	A15	0.000	
885	 H01	62.359	25.559	103.282	 H	27	A15	0.000	
886	 H02	61.221	26.116	101.345	 H	27	A15	0.000	
887	 H03	59.872	24.582	103.070	 H	27	A15	0.000	
888	 H04	60.464	22.385	102.115	 H	27	A15	0.000	
889	 H05	58.396	22.163	102.087	 H	27	A15	0.000	
890	 H06	59.910	23.559	99.354	 H	27	A15	0.000	
891	 H07	61.376	22.572	95.240	 H	27	A15	0.000	
892	 H08	63.354	18.706	95.856	 H	27	A15	0.000	
893	 H09	63.416	18.390	97.576	 H	27	A15	0.000	
894	 H10	61.798	20.993	101.443	 H	27	A15	0.000	
895	 H11	64.753	24.165	101.684	 H	27	A15	0.000	
896	 H12	63.413	25.112	101.901	 H	27	A15	0.000	
897	   P	58.127	26.404	102.070	P.3	28	A16	0.000	
898	 C5'	56.295	24.920	103.118	C.3	28	A16	0.000	
899	 O5'	57.468	25.696	103.327	O.3	28	A16	0.000	
900	 C4'	55.660	24.454	104.400	C.3	28	A16	0.000	
901	 O4'	56.321	23.242	104.816	O.3	28	A16	0.000	
902	 C3'	55.751	25.410	105.581	C.3	28	A16	0.000	
903	 O3'	54.644	25.183	106.456	O.3	28	A16	0.000	
904	 C2'	57.023	24.946	106.268	C.3	28	A16	0.000	
905	 O2'	57.098	25.278	107.637	O.3	28	A16	0.000	
906	 C1'	56.941	23.437	106.071	C.3	28	A16	0.000	
907	  N1	59.453	19.075	106.257	N.2	28	A16	0.000	
908	  C2	58.181	19.391	106.489	C.2	28	A16	0.000	
909	  N3	57.586	20.579	106.428	N.2	28	A16	0.000	
910	  C4	58.483	21.514	106.084	C.2	28	A16	0.000	
911	  C5	59.805	21.361	105.799	C.2	28	A16	0.000	
912	  C6	60.282	20.066	105.900	C.2	28	A16	0.000	
913	  N6	61.549	19.774	105.656	N.pl3	28	A16	0.000	
914	  N7	60.404	22.567	105.471	N.2	28	A16	0.000	
915	  C8	59.429	23.428	105.544	C.2	28	A16	0.000	
916	  N9	58.249	22.835	105.910	N.pl3	28	A16	0.000	
917	 OP1	57.046	26.679	101.099	O.co2	28	A16	0.000	
918	 OP2	59.026	27.526	102.379	O.3	28	A16	0.000	
919	 H01	55.571	25.524	102.571	 H	28	A16	0.000	
920	 H02	54.602	24.345	104.161	 H	28	A16	0.000	
921	 H03	55.748	26.464	105.302	 H	28	A16	0.000	
922	 H04	57.912	25.423	105.856	 H	28	A16	0.000	
923	 H05	57.729	24.701	108.073	 H	28	A16	0.000	
924	 H06	56.429	23.005	106.931	 H	28	A16	0.000	
925	 H07	57.536	18.558	106.769	 H	28	A16	0.000	
926	 H08	61.873	18.821	105.739	 H	28	A16	0.000	
927	 H09	62.193	20.504	105.387	 H	28	A16	0.000	
928	 H10	59.539	24.493	105.339	 H	28	A16	0.000	
929	 H11	59.243	27.515	103.314	 H	28	A16	0.000	
930	 H12	56.588	24.031	102.559	 H	28	A16	0.000	
931	   P	53.142	25.189	105.894	P.3	29	A17	0.000	
932	 C5'	52.930	26.542	108.109	C.3	29	A17	0.000	
933	 O5'	52.332	25.713	107.135	O.3	29	A17	0.000	
934	 C4'	51.863	27.072	109.015	C.3	29	A17	0.000	
935	 O4'	51.070	28.071	108.318	O.3	29	A17	0.000	
936	 C3'	50.902	25.991	109.486	C.3	29	A17	0.000	
937	 O3'	50.529	26.257	110.832	O.3	29	A17	0.000	
938	 C2'	49.715	26.142	108.517	C.3	29	A17	0.000	
939	 O2'	48.473	25.679	109.010	O.3	29	A17	0.000	
940	 C1'	49.723	27.649	108.205	C.3	29	A17	0.000	
941	  N1	45.993	29.897	105.402	N.2	29	A17	0.000	
942	  C2	46.162	29.658	106.704	C.2	29	A17	0.000	
943	  N3	47.169	29.064	107.349	N.2	29	A17	0.000	
944	  C4	48.127	28.661	106.498	C.2	29	A17	0.000	
945	  C5	48.115	28.833	105.119	C.2	29	A17	0.000	
946	  C6	46.965	29.489	104.562	C.2	29	A17	0.000	
947	  N6	46.714	29.761	103.266	N.pl3	29	A17	0.000	
948	  N7	49.272	28.276	104.593	N.2	29	A17	0.000	
949	  C8	49.916	27.816	105.640	C.2	29	A17	0.000	
950	  N9	49.286	28.010	106.844	N.pl3	29	A17	0.000	
951	 OP1	52.613	23.802	105.793	O.co2	29	A17	0.000	
952	 OP2	53.079	26.168	104.757	O.3	29	A17	0.000	
953	 H01	53.651	25.965	108.689	 H	29	A17	0.000	
954	 H02	52.380	27.492	109.878	 H	29	A17	0.000	
955	 H03	51.310	24.980	109.478	 H	29	A17	0.000	
956	 H04	49.831	25.512	107.635	 H	29	A17	0.000	
957	 H05	48.226	26.188	109.786	 H	29	A17	0.000	
958	 H06	49.023	28.119	108.895	 H	29	A17	0.000	
959	 H07	45.349	30.003	107.343	 H	29	A17	0.000	
960	 H08	45.859	30.231	103.005	 H	29	A17	0.000	
961	 H09	47.381	29.495	102.556	 H	29	A17	0.000	
962	 H10	50.881	27.316	105.559	 H	29	A17	0.000	
963	 H11	52.448	25.859	104.103	 H	29	A17	0.000	
964	 H12	53.446	27.370	107.623	 H	29	A17	0.000	
965	   P	51.471	25.759	112.041	P.3	30	C18	0.000	
966	 C5'	49.320	24.486	112.776	C.3	30	C18	0.000	
967	 O5'	50.716	24.471	112.592	O.3	30	C18	0.000	
968	 C4'	48.682	23.145	112.494	C.3	30	C18	0.000	
969	 O4'	48.446	22.977	111.075	O.3	30	C18	0.000	
970	 C3'	49.464	21.916	112.893	C.3	30	C18	0.000	
971	 O3'	49.307	21.623	114.264	O.3	30	C18	0.000	
972	 C2'	48.858	20.835	112.006	C.3	30	C18	0.000	
973	 O2'	47.655	20.335	112.570	O.3	30	C18	0.000	
974	 C1'	48.518	21.613	110.737	C.3	30	C18	0.000	
975	  N1	49.514	21.454	109.660	N.pl3	30	C18	0.000	
976	  C2	49.754	20.241	109.021	C.2	30	C18	0.000	
977	  O2	49.186	19.212	109.350	O.2	30	C18	0.000	
978	  N3	50.684	20.218	108.047	N.2	30	C18	0.000	
979	  C4	51.328	21.328	107.671	C.2	30	C18	0.000	
980	  N4	52.210	21.238	106.689	N.pl3	30	C18	0.000	
981	  C5	51.079	22.586	108.281	C.2	30	C18	0.000	
982	  C6	50.155	22.591	109.252	C.2	30	C18	0.000	
983	 OP1	51.646	26.878	113.002	O.co2	30	C18	0.000	
984	 OP2	52.726	25.183	111.463	O.3	30	C18	0.000	
985	 H01	49.106	24.765	113.808	 H	30	C18	0.000	
986	 H02	47.782	23.194	113.107	 H	30	C18	0.000	
987	 H03	50.541	22.024	112.761	 H	30	C18	0.000	
988	 H04	49.520	19.982	111.860	 H	30	C18	0.000	
989	 H05	47.421	20.857	113.341	 H	30	C18	0.000	
990	 H06	47.575	21.221	110.357	 H	30	C18	0.000	
991	 H07	52.707	22.061	106.380	 H	30	C18	0.000	
992	 H08	52.386	20.346	106.248	 H	30	C18	0.000	
993	 H09	51.606	23.491	107.979	 H	30	C18	0.000	
994	 H10	49.905	23.536	109.734	 H	30	C18	0.000	
995	 H11	52.959	25.660	110.663	 H	30	C18	0.000	
996	 H12	48.902	25.205	112.071	 H	30	C18	0.000	
997	   P	50.542	21.181	115.187	P.3	31	A19	0.000	
998	 C5'	50.106	18.676	114.643	C.3	31	A19	0.000	
999	 O5'	50.995	19.784	114.573	O.3	31	A19	0.000	
1000	 C4'	50.552	17.517	113.790	C.3	31	A19	0.000	
1001	 O4'	50.390	17.875	112.393	O.3	31	A19	0.000	
1002	 C3'	52.019	17.104	113.896	C.3	31	A19	0.000	
1003	 O3'	52.318	16.303	115.041	O.3	31	A19	0.000	
1004	 C2'	52.256	16.418	112.558	C.3	31	A19	0.000	
1005	 O2'	51.666	15.133	112.565	O.3	31	A19	0.000	
1006	 C1'	51.418	17.292	111.625	C.3	31	A19	0.000	
1007	  N1	55.191	18.212	108.379	N.2	31	A19	0.000	
1008	  C2	54.576	17.098	108.802	C.2	31	A19	0.000	
1009	  N3	53.591	16.928	109.662	N.2	31	A19	0.000	
1010	  C4	53.220	18.139	110.112	C.2	31	A19	0.000	
1011	  C5	53.726	19.390	109.774	C.2	31	A19	0.000	
1012	  C6	54.788	19.406	108.846	C.2	31	A19	0.000	
1013	  N6	55.421	20.502	108.399	N.pl3	31	A19	0.000	
1014	  N7	53.056	20.397	110.466	N.2	31	A19	0.000	
1015	  C8	52.172	19.736	111.183	C.2	31	A19	0.000	
1016	  N9	52.223	18.371	111.017	N.pl3	31	A19	0.000	
1017	 OP1	49.924	20.825	116.497	O.co2	31	A19	0.000	
1018	 OP2	51.611	22.210	115.086	O.3	31	A19	0.000	
1019	 H01	50.043	18.343	115.679	 H	31	A19	0.000	
1020	 H02	49.940	16.691	114.152	 H	31	A19	0.000	
1021	 H03	52.694	17.944	114.063	 H	31	A19	0.000	
1022	 H04	53.310	16.311	112.301	 H	31	A19	0.000	
1023	 H05	51.533	14.846	113.471	 H	31	A19	0.000	
1024	 H06	51.024	16.672	110.820	 H	31	A19	0.000	
1025	 H07	54.955	16.176	108.360	 H	31	A19	0.000	
1026	 H08	56.174	20.413	107.732	 H	31	A19	0.000	
1027	 H09	55.144	21.415	108.730	 H	31	A19	0.000	
1028	 H10	51.462	20.226	111.849	 H	31	A19	0.000	
1029	 H11	51.835	22.527	115.964	 H	31	A19	0.000	
1030	 H12	49.138	19.007	114.267	 H	31	A19	0.000	
1031	   P	53.578	16.661	115.980	P.3	32	C20	0.000	
1032	 C5'	55.008	14.835	114.824	C.3	32	C20	0.000	
1033	 O5'	54.815	16.205	115.120	O.3	32	C20	0.000	
1034	 C4'	56.082	14.653	113.786	C.3	32	C20	0.000	
1035	 O4'	55.721	15.347	112.563	O.3	32	C20	0.000	
1036	 C3'	57.435	15.238	114.114	C.3	32	C20	0.000	
1037	 O3'	58.172	14.528	115.079	O.3	32	C20	0.000	
1038	 C2'	58.078	15.296	112.745	C.3	32	C20	0.000	
1039	 O2'	58.395	13.983	112.306	O.3	32	C20	0.000	
1040	 C1'	56.898	15.773	111.908	C.3	32	C20	0.000	
1041	  N1	56.849	17.241	111.823	N.pl3	32	C20	0.000	
1042	  C2	57.830	17.902	111.105	C.2	32	C20	0.000	
1043	  O2	58.742	17.251	110.580	O.2	32	C20	0.000	
1044	  N3	57.765	19.250	111.053	N.2	32	C20	0.000	
1045	  C4	56.778	19.911	111.659	C.2	32	C20	0.000	
1046	  N4	56.766	21.228	111.570	N.pl3	32	C20	0.000	
1047	  C5	55.747	19.261	112.377	C.2	32	C20	0.000	
1048	  C6	55.819	17.927	112.419	C.2	32	C20	0.000	
1049	 OP1	53.574	15.772	117.172	O.co2	32	C20	0.000	
1050	 OP2	53.722	18.128	116.082	O.3	32	C20	0.000	
1051	 H01	55.299	14.311	115.734	 H	32	C20	0.000	
1052	 H02	56.155	13.568	113.715	 H	32	C20	0.000	
1053	 H03	57.375	16.207	114.609	 H	32	C20	0.000	
1054	 H04	58.985	15.899	112.702	 H	32	C20	0.000	
1055	 H05	58.405	13.960	111.346	 H	32	C20	0.000	
1056	 H06	56.995	15.369	110.900	 H	32	C20	0.000	
1057	 H07	56.030	21.758	112.015	 H	32	C20	0.000	
1058	 H08	57.493	21.706	111.057	 H	32	C20	0.000	
1059	 H09	54.944	19.813	112.865	 H	32	C20	0.000	
1060	 H10	55.040	17.369	112.939	 H	32	C20	0.000	
1061	 H11	53.787	18.380	117.006	 H	32	C20	0.000	
1062	 H12	54.075	14.430	114.432	 H	32	C20	0.000	
1063	   P	58.914	15.345	116.249	P.3	33	G21	0.000	
1064	 C5'	61.090	15.160	114.841	C.3	33	G21	0.000	
1065	 O5'	60.193	15.992	115.554	O.3	33	G21	0.000	
1066	 C4'	62.105	15.947	114.067	C.3	33	G21	0.000	
1067	 O4'	61.451	16.667	112.999	O.3	33	G21	0.000	
1068	 C3'	62.869	17.025	114.816	C.3	33	G21	0.000	
1069	 O3'	63.929	16.520	115.611	O.3	33	G21	0.000	
1070	 C2'	63.325	17.946	113.693	C.3	33	G21	0.000	
1071	 O2'	64.471	17.438	113.024	O.3	33	G21	0.000	
1072	 C1'	62.132	17.877	112.751	C.3	33	G21	0.000	
1073	  N1	61.536	22.852	112.293	N.pl3	33	G21	0.000	
1074	  C2	62.618	22.072	111.984	C.2	33	G21	0.000	
1075	  N2	63.704	22.697	111.469	N.pl3	33	G21	0.000	
1076	  N3	62.622	20.765	112.159	N.2	33	G21	0.000	
1077	  C4	61.470	20.310	112.671	C.2	33	G21	0.000	
1078	  C5	60.338	21.009	113.018	C.2	33	G21	0.000	
1079	  C6	60.335	22.406	112.815	C.2	33	G21	0.000	
1080	  O6	59.436	23.218	113.046	O.2	33	G21	0.000	
1081	  N7	59.358	20.155	113.523	N.2	33	G21	0.000	
1082	  C8	59.918	18.966	113.475	C.2	33	G21	0.000	
1083	  N9	61.203	18.998	112.969	N.pl3	33	G21	0.000	
1084	 OP1	59.328	14.343	117.267	O.co2	33	G21	0.000	
1085	 OP2	58.101	16.507	116.608	O.3	33	G21	0.000	
1086	 H01	61.611	14.517	115.550	 H	33	G21	0.000	
1087	 H02	62.812	15.176	113.762	 H	33	G21	0.000	
1088	 H03	62.263	17.538	115.563	 H	33	G21	0.000	
1089	 H04	63.599	18.942	114.041	 H	33	G21	0.000	
1090	 H05	64.687	18.007	112.282	 H	33	G21	0.000	
1091	 H06	62.491	17.933	111.723	 H	33	G21	0.000	
1092	 H07	61.623	23.844	112.124	 H	33	G21	0.000	
1093	 H08	64.524	22.162	111.221	 H	33	G21	0.000	
1094	 H09	63.693	23.698	111.333	 H	33	G21	0.000	
1095	 H10	59.421	18.052	113.800	 H	33	G21	0.000	
1096	 H11	57.948	17.045	115.828	 H	33	G21	0.000	
1097	 H12	60.507	14.577	114.128	 H	33	G21	0.000	
1098	   P	64.431	17.322	116.905	P.3	34	A22	0.000	
1099	 C5'	66.410	18.043	115.381	C.3	34	A22	0.000	
1100	 O5'	65.380	18.421	116.276	O.3	34	A22	0.000	
1101	 C4'	67.090	19.266	114.860	C.3	34	A22	0.000	
1102	 O4'	66.184	19.947	113.975	O.3	34	A22	0.000	
1103	 C3'	67.404	20.287	115.936	C.3	34	A22	0.000	
1104	 O3'	68.629	20.024	116.591	O.3	34	A22	0.000	
1105	 C2'	67.373	21.603	115.177	C.3	34	A22	0.000	
1106	 O2'	68.573	21.805	114.451	O.3	34	A22	0.000	
1107	 C1'	66.265	21.339	114.175	C.3	34	A22	0.000	
1108	  N1	63.116	25.287	115.129	N.2	34	A22	0.000	
1109	  C2	64.382	25.220	114.694	C.2	34	A22	0.000	
1110	  N3	65.160	24.169	114.469	N.2	34	A22	0.000	
1111	  C4	64.483	23.057	114.738	C.2	34	A22	0.000	
1112	  C5	63.183	22.954	115.193	C.2	34	A22	0.000	
1113	  C6	62.462	24.145	115.399	C.2	34	A22	0.000	
1114	  N6	61.194	24.217	115.842	N.pl3	34	A22	0.000	
1115	  N7	62.835	21.629	115.363	N.2	34	A22	0.000	
1116	  C8	63.919	20.988	115.022	C.2	34	A22	0.000	
1117	  N9	64.954	21.789	114.653	N.pl3	34	A22	0.000	
1118	 OP1	65.274	16.437	117.731	O.co2	34	A22	0.000	
1119	 OP2	63.286	17.964	117.591	O.3	34	A22	0.000	
1120	 H01	67.135	17.418	115.903	 H	34	A22	0.000	
1121	 H02	68.013	18.921	114.394	 H	34	A22	0.000	
1122	 H03	66.695	20.280	116.764	 H	34	A22	0.000	
1123	 H04	67.241	22.468	115.826	 H	34	A22	0.000	
1124	 H05	68.792	22.740	114.447	 H	34	A22	0.000	
1125	 H06	66.504	21.887	113.263	 H	34	A22	0.000	
1126	 H07	64.848	26.185	114.493	 H	34	A22	0.000	
1127	 H08	60.752	25.117	115.964	 H	34	A22	0.000	
1128	 H09	60.684	23.371	116.053	 H	34	A22	0.000	
1129	 H10	63.989	19.900	115.032	 H	34	A22	0.000	
1130	 H11	63.083	18.799	117.163	 H	34	A22	0.000	
1131	 H12	65.981	17.484	114.549	 H	34	A22	0.000	
1132	   P	68.831	20.432	118.131	P.3	35	A23	0.000	
1133	 C5'	70.013	22.635	117.286	C.3	35	A23	0.000	
1134	 O5'	69.015	22.021	118.090	O.3	35	A23	0.000	
1135	 C4'	69.785	24.124	117.165	C.3	35	A23	0.000	
1136	 O4'	68.542	24.364	116.458	O.3	35	A23	0.000	
1137	 C3'	69.604	24.884	118.467	C.3	35	A23	0.000	
1138	 O3'	70.815	25.207	119.116	O.3	35	A23	0.000	
1139	 C2'	68.824	26.111	118.025	C.3	35	A23	0.000	
1140	 O2'	69.682	27.026	117.358	O.3	35	A23	0.000	
1141	 C1'	67.892	25.501	116.992	C.3	35	A23	0.000	
1142	  N1	63.024	26.676	118.209	N.2	35	A23	0.000	
1143	  C2	63.997	27.373	117.587	C.2	35	A23	0.000	
1144	  N3	65.250	27.023	117.299	N.2	35	A23	0.000	
1145	  C4	65.478	25.775	117.734	C.2	35	A23	0.000	
1146	  C5	64.583	24.924	118.381	C.2	35	A23	0.000	
1147	  C6	63.285	25.410	118.633	C.2	35	A23	0.000	
1148	  N6	62.344	24.683	119.261	N.pl3	35	A23	0.000	
1149	  N7	65.171	23.698	118.677	N.2	35	A23	0.000	
1150	  C8	66.385	23.836	118.201	C.2	35	A23	0.000	
1151	  N9	66.634	25.056	117.613	N.pl3	35	A23	0.000	
1152	 OP1	70.118	19.826	118.563	O.co2	35	A23	0.000	
1153	 OP2	67.577	20.106	118.874	O.3	35	A23	0.000	
1154	 H01	70.990	22.461	117.737	 H	35	A23	0.000	
1155	 H02	70.691	24.474	116.671	 H	35	A23	0.000	
1156	 H03	69.092	24.293	119.227	 H	35	A23	0.000	
1157	 H04	68.344	26.649	118.843	 H	35	A23	0.000	
1158	 H05	69.829	27.793	117.917	 H	35	A23	0.000	
1159	 H06	67.662	26.244	116.228	 H	35	A23	0.000	
1160	 H07	63.715	28.377	117.271	 H	35	A23	0.000	
1161	 H08	61.427	25.075	119.422	 H	35	A23	0.000	
1162	 H09	62.554	23.745	119.572	 H	35	A23	0.000	
1163	 H10	67.136	23.049	118.266	 H	35	A23	0.000	
1164	 H11	67.355	20.831	119.462	 H	35	A23	0.000	
1165	 H12	69.965	22.199	116.288	 H	35	A23	0.000	
1166	   P	70.786	25.458	120.695	P.3	36	G24	0.000	
1167	 C5'	69.276	27.327	121.783	C.3	36	G24	0.000	
1168	 O5'	70.290	26.971	120.844	O.3	36	G24	0.000	
1169	 C4'	68.474	28.526	121.330	C.3	36	G24	0.000	
1170	 O4'	67.517	28.116	120.315	O.3	36	G24	0.000	
1171	 C3'	67.612	29.200	122.393	C.3	36	G24	0.000	
1172	 O3'	68.328	30.084	123.245	O.3	36	G24	0.000	
1173	 C2'	66.523	29.868	121.559	C.3	36	G24	0.000	
1174	 O2'	66.996	31.041	120.925	O.3	36	G24	0.000	
1175	 C1'	66.303	28.820	120.480	C.3	36	G24	0.000	
1176	  N1	61.435	28.338	121.574	N.pl3	36	G24	0.000	
1177	  C2	62.160	29.446	121.190	C.2	36	G24	0.000	
1178	  N2	61.475	30.592	121.083	N.pl3	36	G24	0.000	
1179	  N3	63.452	29.443	120.928	N.2	36	G24	0.000	
1180	  C4	63.956	28.208	121.092	C.2	36	G24	0.000	
1181	  C5	63.334	27.037	121.474	C.2	36	G24	0.000	
1182	  C6	61.944	27.057	121.749	C.2	36	G24	0.000	
1183	  O6	61.204	26.128	122.105	O.2	36	G24	0.000	
1184	  N7	64.245	25.989	121.521	N.2	36	G24	0.000	
1185	  C8	65.382	26.531	121.170	C.2	36	G24	0.000	
1186	  N9	65.262	27.870	120.891	N.pl3	36	G24	0.000	
1187	 OP1	72.200	25.321	121.126	O.co2	36	G24	0.000	
1188	 OP2	69.720	24.602	121.299	O.3	36	G24	0.000	
1189	 H01	68.601	26.480	121.910	 H	36	G24	0.000	
1190	 H02	69.241	29.227	121.000	 H	36	G24	0.000	
1191	 H03	67.209	28.499	123.124	 H	36	G24	0.000	
1192	 H04	65.652	30.155	122.148	 H	36	G24	0.000	
1193	 H05	67.036	31.757	121.564	 H	36	G24	0.000	
1194	 H06	65.990	29.303	119.554	 H	36	G24	0.000	
1195	 H07	60.448	28.469	121.743	 H	36	G24	0.000	
1196	 H08	61.949	31.440	120.805	 H	36	G24	0.000	
1197	 H09	60.485	30.609	121.280	 H	36	G24	0.000	
1198	 H10	66.321	25.981	121.106	 H	36	G24	0.000	
1199	 H11	69.526	24.911	122.187	 H	36	G24	0.000	
1200	 H12	69.766	27.587	122.721	 H	36	G24	0.000	
1201	   P	68.052	30.079	124.835	P.3	37	G25	0.000	
1202	 C5'	66.551	32.229	124.591	C.3	37	G25	0.000	
1203	 O5'	66.670	30.878	125.022	O.3	37	G25	0.000	
1204	 C4'	65.128	32.739	124.616	C.3	37	G25	0.000	
1205	 O4'	64.304	31.925	123.759	O.3	37	G25	0.000	
1206	 C3'	64.394	32.721	125.943	C.3	37	G25	0.000	
1207	 O3'	64.692	33.843	126.727	O.3	37	G25	0.000	
1208	 C2'	62.932	32.713	125.531	C.3	37	G25	0.000	
1209	 O2'	62.498	34.025	125.208	O.3	37	G25	0.000	
1210	 C1'	62.980	31.895	124.251	C.3	37	G25	0.000	
1211	  N1	59.075	28.794	124.915	N.pl3	37	G25	0.000	
1212	  C2	59.095	30.158	124.776	C.2	37	G25	0.000	
1213	  N2	57.908	30.780	124.811	N.pl3	37	G25	0.000	
1214	  N3	60.206	30.854	124.614	N.2	37	G25	0.000	
1215	  C4	61.297	30.059	124.598	C.2	37	G25	0.000	
1216	  C5	61.391	28.698	124.734	C.2	37	G25	0.000	
1217	  C6	60.193	27.963	124.903	C.2	37	G25	0.000	
1218	  O6	60.056	26.739	125.032	O.2	37	G25	0.000	
1219	  N7	62.713	28.275	124.667	N.2	37	G25	0.000	
1220	  C8	63.387	29.375	124.499	C.2	37	G25	0.000	
1221	  N9	62.584	30.490	124.462	N.pl3	37	G25	0.000	
1222	 OP1	69.157	30.872	125.429	O.co2	37	G25	0.000	
1223	 OP2	67.898	28.667	125.283	O.3	37	G25	0.000	
1224	 H01	67.156	32.857	125.245	 H	37	G25	0.000	
1225	 H02	65.258	33.779	124.316	 H	37	G25	0.000	
1226	 H03	64.674	31.869	126.562	 H	37	G25	0.000	
1227	 H04	62.265	32.334	126.305	 H	37	G25	0.000	
1228	 H05	62.363	34.094	124.260	 H	37	G25	0.000	
1229	 H06	62.274	32.331	123.545	 H	37	G25	0.000	
1230	 H07	58.174	28.355	125.036	 H	37	G25	0.000	
1231	 H08	57.861	31.784	124.714	 H	37	G25	0.000	
1232	 H09	57.061	30.244	124.935	 H	37	G25	0.000	
1233	 H10	64.472	29.409	124.398	 H	37	G25	0.000	
1234	 H11	67.990	28.622	126.238	 H	37	G25	0.000	
1235	 H12	66.891	32.270	123.556	 H	37	G25	0.000	
1236	   P	65.044	33.689	128.278	P.3	38	U26	0.000	
1237	 C5'	63.491	35.755	128.082	C.3	38	U26	0.000	
1238	 O5'	64.443	35.033	128.855	O.3	38	U26	0.000	
1239	 C4'	62.197	35.861	128.832	C.3	38	U26	0.000	
1240	 O4'	61.189	34.954	128.278	O.3	38	U26	0.000	
1241	 C3'	62.367	35.462	130.294	C.3	38	U26	0.000	
1242	 O3'	61.524	36.250	131.121	O.3	38	U26	0.000	
1243	 C2'	61.875	34.020	130.284	C.3	38	U26	0.000	
1244	 O2'	61.505	33.463	131.533	O.3	38	U26	0.000	
1245	 C1'	60.708	34.136	129.323	C.3	38	U26	0.000	
1246	  N1	60.238	32.836	128.852	N.pl3	38	U26	0.000	
1247	  C2	58.901	32.663	128.559	C.2	38	U26	0.000	
1248	  O2	58.086	33.567	128.561	O.2	38	U26	0.000	
1249	  N3	58.575	31.378	128.212	N.pl3	38	U26	0.000	
1250	  C4	59.428	30.277	128.165	C.2	38	U26	0.000	
1251	  O4	58.993	29.167	127.825	O.2	38	U26	0.000	
1252	  C5	60.788	30.557	128.533	C.2	38	U26	0.000	
1253	  C6	61.130	31.797	128.878	C.2	38	U26	0.000	
1254	 OP1	66.526	33.685	128.435	O.co2	38	U26	0.000	
1255	 OP2	64.212	32.573	128.813	O.3	38	U26	0.000	
1256	 H01	63.874	36.755	127.878	 H	38	U26	0.000	
1257	 H02	61.884	36.901	128.744	 H	38	U26	0.000	
1258	 H03	63.381	35.590	130.672	 H	38	U26	0.000	
1259	 H04	62.662	33.320	130.001	 H	38	U26	0.000	
1260	 H05	61.574	34.134	132.216	 H	38	U26	0.000	
1261	 H06	59.829	34.568	129.801	 H	38	U26	0.000	
1262	 H07	57.611	31.210	127.963	 H	38	U26	0.000	
1263	 H08	61.533	29.762	128.530	 H	38	U26	0.000	
1264	 H09	62.155	31.992	129.192	 H	38	U26	0.000	
1265	 H10	64.066	32.704	129.753	 H	38	U26	0.000	
1266	 H12	63.319	35.228	127.143	 H	38	U26	0.000	
1267	   P	61.633	36.065	132.708	P.3	39	U27	0.000	
1268	 C5'	59.709	34.902	134.018	C.3	39	U27	0.000	
1269	 O5'	60.665	34.842	132.987	O.3	39	U27	0.000	
1270	 C4'	58.341	35.068	133.426	C.3	39	U27	0.000	
1271	 O4'	58.335	34.561	132.068	O.3	39	U27	0.000	
1272	 C3'	57.250	34.284	134.111	C.3	39	U27	0.000	
1273	 O3'	56.772	34.906	135.279	O.3	39	U27	0.000	
1274	 C2'	56.220	34.114	133.004	C.3	39	U27	0.000	
1275	 O2'	55.515	35.323	132.772	O.3	39	U27	0.000	
1276	 C1'	57.134	33.855	131.818	C.3	39	U27	0.000	
1277	  N1	57.446	32.408	131.727	N.pl3	39	U27	0.000	
1278	  C2	56.423	31.572	131.344	C.2	39	U27	0.000	
1279	  O2	55.315	31.968	131.023	O.2	39	U27	0.000	
1280	  N3	56.769	30.246	131.304	N.pl3	39	U27	0.000	
1281	  C4	57.981	29.666	131.631	C.2	39	U27	0.000	
1282	  O4	58.109	28.437	131.543	O.2	39	U27	0.000	
1283	  C5	58.978	30.601	132.050	C.2	39	U27	0.000	
1284	  C6	58.675	31.897	132.088	C.2	39	U27	0.000	
1285	 OP1	61.031	37.249	133.360	O.co2	39	U27	0.000	
1286	 OP2	63.016	35.594	133.023	O.3	39	U27	0.000	
1287	 H01	59.744	33.981	134.600	 H	39	U27	0.000	
1288	 H02	58.140	36.135	133.522	 H	39	U27	0.000	
1289	 H03	57.581	33.324	134.508	 H	39	U27	0.000	
1290	 H04	55.469	33.352	133.212	 H	39	U27	0.000	
1291	 H05	55.338	35.415	131.833	 H	39	U27	0.000	
1292	 H06	56.660	34.173	130.889	 H	39	U27	0.000	
1293	 H07	56.046	29.611	130.996	 H	39	U27	0.000	
1294	 H08	59.973	30.258	132.334	 H	39	U27	0.000	
1295	 H09	59.443	32.594	132.424	 H	39	U27	0.000	
1296	 H10	63.337	35.041	132.307	 H	39	U27	0.000	
1297	 H11	59.928	35.751	134.666	 H	39	U27	0.000	
1298	   P	56.711	34.071	136.646	P.3	40	U28	0.000	
1299	 C5'	54.247	33.986	135.711	C.3	40	U28	0.000	
1300	 O5'	55.143	33.870	136.825	O.3	40	U28	0.000	
1301	 C4'	53.130	32.993	135.834	C.3	40	U28	0.000	
1302	 O4'	53.377	31.826	134.986	O.3	40	U28	0.000	
1303	 C3'	53.023	32.462	137.255	C.3	40	U28	0.000	
1304	 O3'	51.681	32.161	137.597	O.3	40	U28	0.000	
1305	 C2'	53.819	31.180	137.185	C.3	40	U28	0.000	
1306	 O2'	53.526	30.269	138.220	O.3	40	U28	0.000	
1307	 C1'	53.418	30.673	135.805	C.3	40	U28	0.000	
1308	  N1	54.335	29.658	135.268	N.pl3	40	U28	0.000	
1309	  C2	53.814	28.630	134.519	C.2	40	U28	0.000	
1310	  O2	52.639	28.555	134.219	O.2	40	U28	0.000	
1311	  N3	54.733	27.701	134.117	N.pl3	40	U28	0.000	
1312	  C4	56.084	27.682	134.393	C.2	40	U28	0.000	
1313	  O4	56.786	26.772	133.956	O.2	40	U28	0.000	
1314	  C5	56.541	28.766	135.191	C.2	40	U28	0.000	
1315	  C6	55.666	29.686	135.595	C.2	40	U28	0.000	
1316	 OP1	57.234	34.909	137.748	O.co2	40	U28	0.000	
1317	 OP2	57.351	32.750	136.448	O.3	40	U28	0.000	
1318	 H01	53.832	34.994	135.686	 H	40	U28	0.000	
1319	 H02	52.220	33.516	135.539	 H	40	U28	0.000	
1320	 H03	53.374	33.178	137.998	 H	40	U28	0.000	
1321	 H04	54.892	31.320	137.319	 H	40	U28	0.000	
1322	 H05	53.615	30.709	139.069	 H	40	U28	0.000	
1323	 H06	52.457	30.161	135.848	 H	40	U28	0.000	
1324	 H07	54.382	26.941	133.553	 H	40	U28	0.000	
1325	 H08	57.592	28.843	135.468	 H	40	U28	0.000	
1326	 H09	56.027	30.504	136.218	 H	40	U28	0.000	
1327	 H10	57.475	32.591	135.509	 H	40	U28	0.000	
1328	 H11	54.798	33.787	134.792	 H	40	U28	0.000	
1329	   P	51.294	32.138	139.154	P.3	41	U29	0.000	
1330	 C5'	51.426	29.934	140.521	C.3	41	U29	0.000	
1331	 O5'	52.081	30.881	139.716	O.3	41	U29	0.000	
1332	 C4'	50.455	29.115	139.712	C.3	41	U29	0.000	
1333	 O4'	50.985	28.829	138.393	O.3	41	U29	0.000	
1334	 C3'	50.158	27.758	140.307	C.3	41	U29	0.000	
1335	 O3'	49.212	27.862	141.347	O.3	41	U29	0.000	
1336	 C2'	49.705	26.959	139.095	C.3	41	U29	0.000	
1337	 O2'	48.374	27.299	138.738	O.3	41	U29	0.000	
1338	 C1'	50.642	27.511	138.017	C.3	41	U29	0.000	
1339	  N1	51.915	26.758	137.882	N.pl3	41	U29	0.000	
1340	  C2	51.999	25.387	137.727	C.2	41	U29	0.000	
1341	  O2	51.045	24.628	137.728	O.2	41	U29	0.000	
1342	  N3	53.289	24.921	137.605	N.pl3	41	U29	0.000	
1343	  C4	54.467	25.648	137.591	C.2	41	U29	0.000	
1344	  O4	55.553	25.091	137.465	O.2	41	U29	0.000	
1345	  C5	54.294	27.046	137.730	C.2	41	U29	0.000	
1346	  C6	53.058	27.511	137.856	C.2	41	U29	0.000	
1347	 OP1	49.825	31.951	139.258	O.co2	41	U29	0.000	
1348	 OP2	51.930	33.313	139.809	O.3	41	U29	0.000	
1349	 H01	52.167	29.271	140.967	 H	41	U29	0.000	
1350	 H02	49.553	29.726	139.688	 H	41	U29	0.000	
1351	 H03	50.999	27.272	140.801	 H	41	U29	0.000	
1352	 H04	49.732	25.880	139.247	 H	41	U29	0.000	
1353	 H05	48.035	26.654	138.113	 H	41	U29	0.000	
1354	 H06	50.114	27.440	137.066	 H	41	U29	0.000	
1355	 H07	53.389	23.920	137.514	 H	41	U29	0.000	
1356	 H08	55.151	27.720	137.733	 H	41	U29	0.000	
1357	 H09	52.942	28.591	137.947	 H	41	U29	0.000	
1358	 H10	52.121	33.104	140.726	 H	41	U29	0.000	
1359	 H11	50.871	30.463	141.296	 H	41	U29	0.000	
1360	   P	49.748	28.120	142.831	P.3	42	U30	0.000	
1361	 C5'	49.188	25.903	143.955	C.3	42	U30	0.000	
1362	 O5'	48.810	27.238	143.744	O.3	42	U30	0.000	
1363	 C4'	48.520	24.992	142.970	C.3	42	U30	0.000	
1364	 O4'	49.295	24.930	141.754	O.3	42	U30	0.000	
1365	 C3'	48.413	23.556	143.441	C.3	42	U30	0.000	
1366	 O3'	47.282	23.376	144.280	O.3	42	U30	0.000	
1367	 C2'	48.376	22.769	142.138	C.3	42	U30	0.000	
1368	 O2'	47.070	22.762	141.583	O.3	42	U30	0.000	
1369	 C1'	49.280	23.621	141.237	C.3	42	U30	0.000	
1370	  N1	50.698	23.201	141.213	N.pl3	42	U30	0.000	
1371	  C2	51.192	21.904	141.288	C.2	42	U30	0.000	
1372	  O2	50.533	20.882	141.411	O.2	42	U30	0.000	
1373	  N3	52.568	21.854	141.232	N.pl3	42	U30	0.000	
1374	  C4	53.466	22.905	141.096	C.2	42	U30	0.000	
1375	  O4	54.679	22.691	141.058	O.2	42	U30	0.000	
1376	  C5	52.871	24.196	141.011	C.2	42	U30	0.000	
1377	  C6	51.547	24.277	141.070	C.2	42	U30	0.000	
1378	 OP1	49.533	29.553	143.143	O.co2	42	U30	0.000	
1379	 OP2	51.105	27.518	142.926	O.3	42	U30	0.000	
1380	 H01	50.269	25.816	143.845	 H	42	U30	0.000	
1381	 H02	47.523	25.411	142.833	 H	42	U30	0.000	
1382	 H03	49.236	23.222	144.073	 H	42	U30	0.000	
1383	 H04	48.675	21.728	142.258	 H	42	U30	0.000	
1384	 H05	46.726	21.866	141.583	 H	42	U30	0.000	
1385	 H06	48.872	23.524	140.231	 H	42	U30	0.000	
1386	 H07	52.977	20.933	141.299	 H	42	U30	0.000	
1387	 H08	53.484	25.091	140.901	 H	42	U30	0.000	
1388	 H09	51.098	25.268	141.000	 H	42	U30	0.000	
1389	 H10	51.404	27.262	142.050	 H	42	U30	0.000	
1390	 H11	48.882	25.611	144.960	 H	42	U30	0.000	
1391	   P	47.251	22.238	145.413	P.3	43	A31	0.000	
1392	 C5'	48.272	24.223	146.854	C.3	43	A31	0.000	
1393	 O5'	47.539	23.000	146.793	O.3	43	A31	0.000	
1394	 C4'	49.560	24.073	147.632	C.3	43	A31	0.000	
1395	 O4'	49.545	24.979	148.770	O.3	43	A31	0.000	
1396	 C3'	49.823	22.674	148.199	C.3	43	A31	0.000	
1397	 O3'	51.219	22.368	148.140	O.3	43	A31	0.000	
1398	 C2'	49.393	22.808	149.656	C.3	43	A31	0.000	
1399	 O2'	50.019	21.894	150.532	O.3	43	A31	0.000	
1400	 C1'	49.788	24.251	149.962	C.3	43	A31	0.000	
1401	  N1	45.162	25.183	152.181	N.2	43	A31	0.000	
1402	  C2	45.498	24.518	151.071	C.2	43	A31	0.000	
1403	  N3	46.704	24.307	150.543	N.2	43	A31	0.000	
1404	  C4	47.672	24.872	151.290	C.2	43	A31	0.000	
1405	  C5	47.476	25.588	152.461	C.2	43	A31	0.000	
1406	  C6	46.149	25.741	152.914	C.2	43	A31	0.000	
1407	  N6	45.808	26.403	154.022	N.pl3	43	A31	0.000	
1408	  N7	48.689	26.028	152.970	N.2	43	A31	0.000	
1409	  C8	49.575	25.578	152.115	C.2	43	A31	0.000	
1410	  N9	49.038	24.870	151.066	N.pl3	43	A31	0.000	
1411	 OP1	48.334	21.267	145.132	O.co2	43	A31	0.000	
1412	 OP2	45.849	21.753	145.459	O.3	43	A31	0.000	
1413	 H01	48.508	24.544	145.839	 H	43	A31	0.000	
1414	 H02	50.345	24.290	146.907	 H	43	A31	0.000	
1415	 H03	49.301	21.887	147.655	 H	43	A31	0.000	
1416	 H04	48.336	22.583	149.801	 H	43	A31	0.000	
1417	 H05	50.229	21.087	150.057	 H	43	A31	0.000	
1418	 H06	50.829	24.263	150.284	 H	43	A31	0.000	
1419	 H07	44.665	24.085	150.517	 H	43	A31	0.000	
1420	 H08	44.836	26.474	154.289	 H	43	A31	0.000	
1421	 H09	46.521	26.833	154.593	 H	43	A31	0.000	
1422	 H10	50.646	25.750	152.226	 H	43	A31	0.000	
1423	 H11	47.654	24.961	147.366	 H	43	A31	0.000	
1424	 H12	45.550	21.722	146.371	 H	43	A31	0.000	
1425	   P	51.725	21.125	147.250	P.3	44	U32	0.000	
1426	 C5'	51.384	20.661	144.681	C.3	44	U32	0.000	
1427	 O5'	51.022	21.393	145.843	O.3	44	U32	0.000	
1428	 C4'	51.180	19.188	144.903	C.3	44	U32	0.000	
1429	 O4'	49.996	18.972	145.721	O.3	44	U32	0.000	
1430	 C3'	50.993	18.341	143.651	C.3	44	U32	0.000	
1431	 O3'	51.596	17.055	143.840	O.3	44	U32	0.000	
1432	 C2'	49.475	18.181	143.587	C.3	44	U32	0.000	
1433	 O2'	49.027	17.063	142.851	O.3	44	U32	0.000	
1434	 C1'	49.131	18.066	145.068	C.3	44	U32	0.000	
1435	  N1	47.740	18.402	145.412	N.pl3	44	U32	0.000	
1436	  C2	47.417	18.561	146.752	C.2	44	U32	0.000	
1437	  O2	48.224	18.479	147.661	O.2	44	U32	0.000	
1438	  N3	46.102	18.855	146.999	N.pl3	44	U32	0.000	
1439	  C4	45.094	18.980	146.068	C.2	44	U32	0.000	
1440	  O4	43.956	19.246	146.453	O.2	44	U32	0.000	
1441	  C5	45.499	18.784	144.709	C.2	44	U32	0.000	
1442	  C6	46.776	18.503	144.435	C.2	44	U32	0.000	
1443	 OP1	51.189	19.895	147.896	O.co2	44	U32	0.000	
1444	 OP2	53.190	21.214	147.019	O.3	44	U32	0.000	
1445	 H01	50.767	20.987	143.844	 H	44	U32	0.000	
1446	 H02	52.109	18.869	145.376	 H	44	U32	0.000	
1447	 H03	51.435	18.779	142.756	 H	44	U32	0.000	
1448	 H04	48.990	19.002	143.058	 H	44	U32	0.000	
1449	 H05	48.850	16.334	143.451	 H	44	U32	0.000	
1450	 H06	49.249	17.026	145.371	 H	44	U32	0.000	
1451	 H07	45.844	18.995	147.965	 H	44	U32	0.000	
1452	 H08	44.770	18.864	143.903	 H	44	U32	0.000	
1453	 H09	47.066	18.347	143.396	 H	44	U32	0.000	
1454	 H10	53.460	22.135	147.027	 H	44	U32	0.000	
1455	 H13	52.437	20.842	144.463	 H	44	U32	0.000	
1456	   P	52.422	16.644	145.172	P.3	45	C33	0.000	
1457	 C5'	54.699	17.399	146.177	C.3	45	C33	0.000	
1458	 O5'	53.648	17.657	145.262	O.3	45	C33	0.000	
1459	 C4'	55.812	16.622	145.525	C.3	45	C33	0.000	
1460	 O4'	55.872	16.959	144.119	O.3	45	C33	0.000	
1461	 C3'	57.209	16.902	146.050	C.3	45	C33	0.000	
1462	 O3'	57.501	16.092	147.169	O.3	45	C33	0.000	
1463	 C2'	58.097	16.619	144.848	C.3	45	C33	0.000	
1464	 O2'	58.309	15.223	144.698	O.3	45	C33	0.000	
1465	 C1'	57.211	17.097	143.704	C.3	45	C33	0.000	
1466	  N1	57.431	18.515	143.334	N.pl3	45	C33	0.000	
1467	  C2	58.683	19.096	143.093	C.2	45	C33	0.000	
1468	  O2	59.732	18.434	143.139	O.2	45	C33	0.000	
1469	  N3	58.711	20.406	142.750	N.2	45	C33	0.000	
1470	  C4	57.597	21.141	142.656	C.2	45	C33	0.000	
1471	  N4	57.697	22.432	142.314	N.pl3	45	C33	0.000	
1472	  C5	56.326	20.575	142.923	C.2	45	C33	0.000	
1473	  C6	56.311	19.286	143.257	C.2	45	C33	0.000	
1474	 OP1	53.012	15.330	144.812	O.co2	45	C33	0.000	
1475	 OP2	51.629	16.728	146.432	O.3	45	C33	0.000	
1476	 H01	55.093	18.347	146.543	 H	45	C33	0.000	
1477	 H02	55.564	15.582	145.740	 H	45	C33	0.000	
1478	 H03	57.348	17.918	146.420	 H	45	C33	0.000	
1479	 H04	59.080	17.087	144.912	 H	45	C33	0.000	
1480	 H05	58.326	15.000	143.764	 H	45	C33	0.000	
1481	 H06	57.454	16.496	142.827	 H	45	C33	0.000	
1482	 H07	56.866	23.001	142.243	 H	45	C33	0.000	
1483	 H08	58.604	22.836	142.128	 H	45	C33	0.000	
1484	 H09	55.410	21.163	142.859	 H	45	C33	0.000	
1485	 H10	55.350	18.823	143.481	 H	45	C33	0.000	
1486	 H11	54.301	16.806	147.000	 H	45	C33	0.000	
1487	 H12	51.543	17.647	146.696	 H	45	C33	0.000	
1488	   P	58.258	16.719	148.447	P.3	46	C34	0.000	
1489	 C5'	60.708	15.994	147.711	C.3	46	C34	0.000	
1490	 O5'	59.765	17.043	147.935	O.3	46	C34	0.000	
1491	 C4'	62.136	16.514	147.600	C.3	46	C34	0.000	
1492	 O4'	62.274	17.240	146.348	O.3	46	C34	0.000	
1493	 C3'	62.576	17.528	148.674	C.3	46	C34	0.000	
1494	 O3'	63.112	16.917	149.838	O.3	46	C34	0.000	
1495	 C2'	63.586	18.426	147.946	C.3	46	C34	0.000	
1496	 O2'	64.866	17.845	147.867	O.3	46	C34	0.000	
1497	 C1'	62.993	18.453	146.549	C.3	46	C34	0.000	
1498	  N1	62.039	19.570	146.370	N.pl3	46	C34	0.000	
1499	  C2	62.480	20.958	146.232	C.2	46	C34	0.000	
1500	  O2	63.735	21.187	146.320	O.2	46	C34	0.000	
1501	  N3	61.590	22.035	146.053	N.2	46	C34	0.000	
1502	  C4	60.256	21.720	145.988	C.2	46	C34	0.000	
1503	  N4	59.324	22.727	145.810	N.pl3	46	C34	0.000	
1504	  C5	59.753	20.356	146.124	C.2	46	C34	0.000	
1505	  C6	60.645	19.321	146.316	C.2	46	C34	0.000	
1506	 OP1	58.288	15.578	149.446	O.co2	46	C34	0.000	
1507	 OP2	57.517	17.975	148.854	O.3	46	C34	0.000	
1508	 H01	60.654	15.290	148.541	 H	46	C34	0.000	
1509	 H02	62.748	15.617	147.701	 H	46	C34	0.000	
1510	 H03	61.732	18.094	149.069	 H	46	C34	0.000	
1511	 H04	63.723	19.388	148.439	 H	46	C34	0.000	
1512	 H05	65.151	17.822	146.951	 H	46	C34	0.000	
1513	 H06	63.811	18.577	145.839	 H	46	C34	0.000	
1514	 H07	58.340	22.503	145.770	 H	46	C34	0.000	
1515	 H08	59.628	23.686	145.720	 H	46	C34	0.000	
1516	 H09	58.682	20.157	146.074	 H	46	C34	0.000	
1517	 H10	60.274	18.302	146.427	 H	46	C34	0.000	
1518	 H11	57.390	18.536	148.085	 H	46	C34	0.000	
1519	 H13	60.454	15.514	146.766	 H	46	C34	0.000	
1520	   P	63.062	17.704	151.227	P.3	47	C35	0.000	
1521	 C5'	64.200	19.962	151.790	C.3	47	C35	0.000	
1522	 O5'	64.187	18.798	151.005	O.3	47	C35	0.000	
1523	 C4'	65.179	20.970	151.267	C.3	47	C35	0.000	
1524	 O4'	64.949	21.136	149.840	O.3	47	C35	0.000	
1525	 C3'	64.987	22.362	151.857	C.3	47	C35	0.000	
1526	 O3'	65.705	22.557	153.073	O.3	47	C35	0.000	
1527	 C2'	65.424	23.274	150.721	C.3	47	C35	0.000	
1528	 O2'	66.839	23.355	150.628	O.3	47	C35	0.000	
1529	 C1'	64.899	22.503	149.515	C.3	47	C35	0.000	
1530	  N1	63.486	22.820	149.228	N.pl3	47	C35	0.000	
1531	  C2	63.101	24.109	148.874	C.2	47	C35	0.000	
1532	  O2	63.941	25.011	148.829	O.2	47	C35	0.000	
1533	  N3	61.805	24.362	148.612	N.2	47	C35	0.000	
1534	  C4	60.907	23.389	148.681	C.2	47	C35	0.000	
1535	  N4	59.644	23.713	148.409	N.pl3	47	C35	0.000	
1536	  C5	61.267	22.057	149.032	C.2	47	C35	0.000	
1537	  C6	62.556	21.824	149.282	C.2	47	C35	0.000	
1538	 OP1	63.498	16.785	152.320	O.co2	47	C35	0.000	
1539	 OP2	61.764	18.394	151.330	O.3	47	C35	0.000	
1540	 H01	63.203	20.402	151.788	 H	47	C35	0.000	
1541	 H02	66.169	20.595	151.526	 H	47	C35	0.000	
1542	 H03	63.962	22.560	152.171	 H	47	C35	0.000	
1543	 H04	65.068	24.299	150.828	 H	47	C35	0.000	
1544	 H05	67.113	24.272	150.703	 H	47	C35	0.000	
1545	 H06	65.504	22.767	148.648	 H	47	C35	0.000	
1546	 H07	58.922	23.008	148.449	 H	47	C35	0.000	
1547	 H08	59.408	24.664	148.163	 H	47	C35	0.000	
1548	 H09	60.522	21.263	149.094	 H	47	C35	0.000	
1549	 H10	62.874	20.813	149.536	 H	47	C35	0.000	
1550	 H11	61.490	18.693	150.460	 H	47	C35	0.000	
1551	 H12	64.501	19.688	152.801	 H	47	C35	0.000	
1552	   P	65.309	21.748	154.414	P.3	48	U36	0.000	
1553	 C5'	66.042	19.356	155.186	C.3	48	U36	0.000	
1554	 O5'	66.019	20.349	154.184	O.3	48	U36	0.000	
1555	 C4'	66.844	18.165	154.732	C.3	48	U36	0.000	
1556	 O4'	67.313	18.363	153.370	O.3	48	U36	0.000	
1557	 C3'	68.104	17.889	155.519	C.3	48	U36	0.000	
1558	 O3'	67.821	17.204	156.722	O.3	48	U36	0.000	
1559	 C2'	68.962	17.100	154.534	C.3	48	U36	0.000	
1560	 O2'	68.572	15.734	154.521	O.3	48	U36	0.000	
1561	 C1'	68.567	17.737	153.195	C.3	48	U36	0.000	
1562	  N1	69.566	18.718	152.684	N.pl3	48	U36	0.000	
1563	  C2	70.678	18.187	152.044	C.2	48	U36	0.000	
1564	  O2	70.839	16.991	151.862	O.2	48	U36	0.000	
1565	  N3	71.584	19.104	151.558	N.pl3	48	U36	0.000	
1566	  C4	71.525	20.477	151.671	C.2	48	U36	0.000	
1567	  O4	72.434	21.161	151.192	O.2	48	U36	0.000	
1568	  C5	70.362	20.957	152.359	C.2	48	U36	0.000	
1569	  C6	69.449	20.088	152.828	C.2	48	U36	0.000	
1570	 OP1	63.849	21.499	154.445	O.co2	48	U36	0.000	
1571	 OP2	65.929	22.388	155.601	O.3	48	U36	0.000	
1572	 H01	66.491	19.768	156.090	 H	48	U36	0.000	
1573	 H02	66.149	17.335	154.859	 H	48	U36	0.000	
1574	 H03	68.620	18.785	155.863	 H	48	U36	0.000	
1575	 H04	70.027	17.129	154.764	 H	48	U36	0.000	
1576	 H05	68.483	15.418	155.423	 H	48	U36	0.000	
1577	 H06	68.521	16.948	152.444	 H	48	U36	0.000	
1578	 H07	72.381	18.729	151.064	 H	48	U36	0.000	
1579	 H08	70.218	22.028	152.502	 H	48	U36	0.000	
1580	 H09	68.575	20.483	153.346	 H	48	U36	0.000	
1581	 H10	66.160	21.714	156.244	 H	48	U36	0.000	
1582	 H12	65.020	19.036	155.387	 H	48	U36	0.000	
1583	   P	68.561	17.675	158.055	P.3	49	G37	0.000	
1584	 C5'	71.168	17.695	158.185	C.3	49	G37	0.000	
1585	 O5'	69.994	18.075	157.497	O.3	49	G37	0.000	
1586	 C4'	71.939	16.638	157.433	C.3	49	G37	0.000	
1587	 O4'	72.001	16.920	156.005	O.3	49	G37	0.000	
1588	 C3'	73.391	16.486	157.830	C.3	49	G37	0.000	
1589	 O3'	73.552	15.805	159.061	O.3	49	G37	0.000	
1590	 C2'	73.983	15.746	156.633	C.3	49	G37	0.000	
1591	 O2'	73.688	14.359	156.710	O.3	49	G37	0.000	
1592	 C1'	73.185	16.353	155.468	C.3	49	G37	0.000	
1593	  N1	74.456	21.265	154.210	N.pl3	49	G37	0.000	
1594	  C2	73.553	20.848	155.151	C.2	49	G37	0.000	
1595	  N2	72.928	21.827	155.823	N.pl3	49	G37	0.000	
1596	  N3	73.285	19.572	155.409	N.2	49	G37	0.000	
1597	  C4	74.007	18.719	154.644	C.2	49	G37	0.000	
1598	  C5	74.938	19.052	153.670	C.2	49	G37	0.000	
1599	  C6	75.209	20.422	153.407	C.2	49	G37	0.000	
1600	  O6	75.994	20.914	152.593	O.2	49	G37	0.000	
1601	  N7	75.479	17.918	153.084	N.2	49	G37	0.000	
1602	  C8	74.876	16.938	153.695	C.2	49	G37	0.000	
1603	  N9	73.963	17.329	154.655	N.pl3	49	G37	0.000	
1604	 OP1	68.713	16.513	158.964	O.co2	49	G37	0.000	
1605	 OP2	67.880	18.910	158.525	O.3	49	G37	0.000	
1606	 H01	71.803	18.572	158.313	 H	49	G37	0.000	
1607	 H02	71.380	15.736	157.682	 H	49	G37	0.000	
1608	 H03	73.893	17.434	158.024	 H	49	G37	0.000	
1609	 H04	75.066	15.840	156.555	 H	49	G37	0.000	
1610	 H05	73.633	14.094	157.631	 H	49	G37	0.000	
1611	 H06	72.937	15.562	154.760	 H	49	G37	0.000	
1612	 H07	74.583	22.260	154.092	 H	49	G37	0.000	
1613	 H08	72.247	21.597	156.533	 H	49	G37	0.000	
1614	 H09	73.138	22.794	155.619	 H	49	G37	0.000	
1615	 H10	75.076	15.891	153.467	 H	49	G37	0.000	
1616	 H11	70.877	17.280	159.150	 H	49	G37	0.000	
1617	 H12	67.770	19.516	157.788	 H	49	G37	0.000	
1618	   P	74.713	16.282	160.055	P.3	50	C38	0.000	
1619	 C5'	77.269	16.516	159.490	C.3	50	C38	0.000	
1620	 O5'	75.923	16.543	159.060	O.3	50	C38	0.000	
1621	 C4'	78.174	16.212	158.327	C.3	50	C38	0.000	
1622	 O4'	77.549	16.669	157.102	O.3	50	C38	0.000	
1623	 C3'	79.522	16.907	158.337	C.3	50	C38	0.000	
1624	 O3'	80.459	16.258	159.179	O.3	50	C38	0.000	
1625	 C2'	79.891	16.925	156.857	C.3	50	C38	0.000	
1626	 O2'	80.334	15.646	156.429	O.3	50	C38	0.000	
1627	 C1'	78.526	17.172	156.219	C.3	50	C38	0.000	
1628	  N1	78.277	18.617	155.973	N.pl3	50	C38	0.000	
1629	  C2	77.075	19.275	156.316	C.2	50	C38	0.000	
1630	  O2	76.145	18.688	156.887	O.2	50	C38	0.000	
1631	  N3	76.933	20.591	156.034	N.2	50	C38	0.000	
1632	  C4	77.904	21.262	155.422	C.2	50	C38	0.000	
1633	  N4	77.704	22.556	155.161	N.pl3	50	C38	0.000	
1634	  C5	79.120	20.626	155.051	C.2	50	C38	0.000	
1635	  C6	79.259	19.326	155.337	C.2	50	C38	0.000	
1636	 OP1	75.062	15.144	160.930	O.co2	50	C38	0.000	
1637	 OP2	74.330	17.579	160.668	O.3	50	C38	0.000	
1638	 H01	77.534	17.486	159.911	 H	50	C38	0.000	
1639	 H02	78.333	15.136	158.400	 H	50	C38	0.000	
1640	 H03	79.506	17.911	158.762	 H	50	C38	0.000	
1641	 H04	80.677	17.641	156.618	 H	50	C38	0.000	
1642	 H05	80.390	15.630	155.471	 H	50	C38	0.000	
1643	 H06	78.489	16.673	155.251	 H	50	C38	0.000	
1644	 H07	78.421	23.094	154.696	 H	50	C38	0.000	
1645	 H08	76.835	22.997	155.428	 H	50	C38	0.000	
1646	 H09	79.914	21.179	154.550	 H	50	C38	0.000	
1647	 H10	80.181	18.818	155.055	 H	50	C38	0.000	
1648	 H11	74.326	18.263	159.994	 H	50	C38	0.000	
1649	 H13	77.387	15.741	160.248	 H	50	C38	0.000	
1650	   P	81.273	17.102	160.277	P.3	51	C39	0.000	
1651	 C5'	83.725	18.039	160.278	C.3	51	C39	0.000	
1652	 O5'	82.738	17.214	159.669	O.3	51	C39	0.000	
1653	 C4'	84.727	18.523	159.262	C.3	51	C39	0.000	
1654	 O4'	84.012	19.101	158.135	O.3	51	C39	0.000	
1655	 C3'	85.690	19.597	159.755	C.3	51	C39	0.000	
1656	 O3'	86.943	19.464	159.088	O.3	51	C39	0.000	
1657	 C2'	85.008	20.885	159.309	C.3	51	C39	0.000	
1658	 O2'	85.883	21.979	159.135	O.3	51	C39	0.000	
1659	 C1'	84.355	20.466	157.990	C.3	51	C39	0.000	
1660	  N1	83.124	21.213	157.689	N.pl3	51	C39	0.000	
1661	  C2	83.182	22.303	156.816	C.2	51	C39	0.000	
1662	  O2	84.268	22.612	156.302	O.2	51	C39	0.000	
1663	  N3	82.051	22.993	156.551	N.2	51	C39	0.000	
1664	  C4	80.902	22.634	157.121	C.2	51	C39	0.000	
1665	  N4	79.819	23.351	156.826	N.pl3	51	C39	0.000	
1666	  C5	80.811	21.532	158.016	C.2	51	C39	0.000	
1667	  C6	81.937	20.858	158.270	C.2	51	C39	0.000	
1668	 OP1	81.340	16.332	161.547	O.co2	51	C39	0.000	
1669	 OP2	80.699	18.468	160.275	O.3	51	C39	0.000	
1670	 H01	83.238	18.899	160.737	 H	51	C39	0.000	
1671	 H02	85.319	17.643	159.011	 H	51	C39	0.000	
1672	 H03	85.888	19.550	160.826	 H	51	C39	0.000	
1673	 H04	87.176	20.298	158.673	 H	51	C39	0.000	
1674	 H05	84.313	21.258	160.061	 H	51	C39	0.000	
1675	 H06	86.069	22.379	159.988	 H	51	C39	0.000	
1676	 H07	85.054	20.662	157.177	 H	51	C39	0.000	
1677	 H08	78.928	23.113	157.238	 H	51	C39	0.000	
1678	 H09	79.889	24.133	156.191	 H	51	C39	0.000	
1679	 H10	79.864	21.249	158.475	 H	51	C39	0.000	
1680	 H11	81.909	20.009	158.953	 H	51	C39	0.000	
1681	 H12	84.251	17.452	161.031	 H	51	C39	0.000	
1682	 H13	80.575	18.762	159.370	 H	51	C39	0.000	
@<TRIPOS>BOND
1 1 3 1
2 1 22 2
3 1 23 1
4 2 3 1
5 2 4 1
6 2 24 1
7 2 25 1
8 4 5 1
9 4 6 1
10 4 26 1
11 5 10 1
12 6 7 1
13 6 8 1
14 6 27 1
15 7 36 1
16 8 9 1
17 8 10 1
18 8 28 1
19 9 29 1
20 10 21 1
21 10 30 1
22 11 12 1
23 11 17 1
24 11 31 1
25 12 13 1
26 12 14 2
27 13 32 1
28 13 33 1
29 14 15 1
30 15 16 2
31 15 21 1
32 16 17 1
33 16 19 1
34 17 18 2
35 19 20 2
36 20 21 1
37 20 34 1
38 23 35 1
39 36 38 1
40 36 57 2
41 36 58 1
42 37 38 1
43 37 39 1
44 37 59 1
45 37 70 1
46 39 40 1
47 39 41 1
48 39 60 1
49 40 45 1
50 41 42 1
51 41 43 1
52 41 61 1
53 42 71 1
54 43 44 1
55 43 45 1
56 43 62 1
57 44 63 1
58 45 56 1
59 45 64 1
60 46 47 1
61 46 52 1
62 46 65 1
63 47 48 1
64 47 49 2
65 48 66 1
66 48 67 1
67 49 50 1
68 50 51 2
69 50 56 1
70 51 52 1
71 51 54 1
72 52 53 2
73 54 55 2
74 55 56 1
75 55 68 1
76 58 69 1
77 71 73 1
78 71 89 2
79 71 90 1
80 72 73 1
81 72 74 1
82 72 91 1
83 72 102 1
84 74 75 1
85 74 76 1
86 74 92 1
87 75 80 1
88 76 77 1
89 76 78 1
90 76 93 1
91 77 103 1
92 78 79 1
93 78 80 1
94 78 94 1
95 79 95 1
96 80 81 1
97 80 96 1
98 81 82 1
99 81 88 1
100 82 83 2
101 82 84 1
102 84 85 2
103 85 86 1
104 85 87 1
105 86 97 1
106 86 98 1
107 87 88 2
108 87 99 1
109 88 100 1
110 90 101 1
111 103 105 1
112 103 123 2
113 103 124 1
114 104 105 1
115 104 106 1
116 104 125 1
117 104 136 1
118 106 107 1
119 106 108 1
120 106 126 1
121 107 112 1
122 108 109 1
123 108 110 1
124 108 127 1
125 109 137 1
126 110 111 1
127 110 112 1
128 110 128 1
129 111 129 1
130 112 122 1
131 112 130 1
132 113 114 1
133 113 118 2
134 114 115 2
135 114 131 1
136 115 116 1
137 116 117 2
138 116 122 1
139 117 118 1
140 117 120 1
141 118 119 1
142 119 132 1
143 119 133 1
144 120 121 2
145 121 122 1
146 121 134 1
147 124 135 1
148 137 139 1
149 137 157 2
150 137 158 1
151 138 139 1
152 138 140 1
153 138 159 1
154 138 170 1
155 140 141 1
156 140 142 1
157 140 160 1
158 141 146 1
159 142 143 1
160 142 144 1
161 142 161 1
162 143 171 1
163 144 145 1
164 144 146 1
165 144 162 1
166 145 163 1
167 146 156 1
168 146 164 1
169 147 148 1
170 147 152 2
171 148 149 2
172 148 165 1
173 149 150 1
174 150 151 2
175 150 156 1
176 151 152 1
177 151 154 1
178 152 153 1
179 153 166 1
180 153 167 1
181 154 155 2
182 155 156 1
183 155 168 1
184 158 169 1
185 171 173 1
186 171 191 2
187 171 192 1
188 172 173 1
189 172 174 1
190 172 193 1
191 172 204 1
192 174 175 1
193 174 176 1
194 174 194 1
195 175 180 1
196 176 177 1
197 176 178 1
198 176 195 1
199 177 205 1
200 178 179 1
201 178 180 1
202 178 196 1
203 179 197 1
204 180 190 1
205 180 198 1
206 181 182 1
207 181 186 2
208 182 183 2
209 182 199 1
210 183 184 1
211 184 185 2
212 184 190 1
213 185 186 1
214 185 188 1
215 186 187 1
216 187 200 1
217 187 201 1
218 188 189 2
219 189 190 1
220 189 202 1
221 192 203 1
222 205 207 1
223 205 225 2
224 205 226 1
225 206 207 1
226 206 208 1
227 206 227 1
228 206 238 1
229 208 209 1
230 208 210 1
231 208 228 1
232 209 214 1
233 210 211 1
234 210 212 1
235 210 229 1
236 211 239 1
237 212 213 1
238 212 214 1
239 212 230 1
240 213 231 1
241 214 224 1
242 214 232 1
243 215 216 1
244 215 220 2
245 216 217 2
246 216 233 1
247 217 218 1
248 218 219 2
249 218 224 1
250 219 220 1
251 219 222 1
252 220 221 1
253 221 234 1
254 221 235 1
255 222 223 2
256 223 224 1
257 223 236 1
258 226 237 1
259 239 241 1
260 239 259 2
261 239 260 1
262 240 241 1
263 240 242 1
264 240 261 1
265 240 272 1
266 242 243 1
267 242 244 1
268 242 262 1
269 243 248 1
270 244 245 1
271 244 246 1
272 244 263 1
273 245 273 1
274 246 247 1
275 246 248 1
276 246 264 1
277 247 265 1
278 248 258 1
279 248 266 1
280 249 250 1
281 249 254 2
282 250 251 2
283 250 267 1
284 251 252 1
285 252 253 2
286 252 258 1
287 253 254 1
288 253 256 1
289 254 255 1
290 255 268 1
291 255 269 1
292 256 257 2
293 257 258 1
294 257 270 1
295 260 271 1
296 273 275 1
297 273 293 2
298 273 294 1
299 274 275 1
300 274 276 1
301 274 295 1
302 274 306 1
303 276 277 1
304 276 278 1
305 276 296 1
306 277 282 1
307 278 279 1
308 278 280 1
309 278 297 1
310 279 307 1
311 280 281 1
312 280 282 1
313 280 298 1
314 281 299 1
315 282 292 1
316 282 300 1
317 283 284 1
318 283 288 2
319 284 285 2
320 284 301 1
321 285 286 1
322 286 287 2
323 286 292 1
324 287 288 1
325 287 290 1
326 288 289 1
327 289 302 1
328 289 303 1
329 290 291 2
330 291 292 1
331 291 304 1
332 294 305 1
333 307 309 1
334 307 327 2
335 307 328 1
336 308 309 1
337 308 310 1
338 308 329 1
339 308 340 1
340 310 311 1
341 310 312 1
342 310 330 1
343 311 316 1
344 312 313 1
345 312 314 1
346 312 331 1
347 313 341 1
348 314 315 1
349 314 316 1
350 314 332 1
351 315 333 1
352 316 326 1
353 316 334 1
354 317 318 1
355 317 322 2
356 318 319 2
357 318 335 1
358 319 320 1
359 320 321 2
360 320 326 1
361 321 322 1
362 321 324 1
363 322 323 1
364 323 336 1
365 323 337 1
366 324 325 2
367 325 326 1
368 325 338 1
369 328 339 1
370 341 343 1
371 341 361 2
372 341 362 1
373 342 343 1
374 342 344 1
375 342 363 1
376 342 374 1
377 344 345 1
378 344 346 1
379 344 364 1
380 345 350 1
381 346 347 1
382 346 348 1
383 346 365 1
384 347 375 1
385 348 349 1
386 348 350 1
387 348 366 1
388 349 367 1
389 350 360 1
390 350 368 1
391 351 352 1
392 351 356 2
393 352 353 2
394 352 369 1
395 353 354 1
396 354 355 2
397 354 360 1
398 355 356 1
399 355 358 1
400 356 357 1
401 357 370 1
402 357 371 1
403 358 359 2
404 359 360 1
405 359 372 1
406 362 373 1
407 375 377 1
408 375 395 2
409 375 396 1
410 376 377 1
411 376 378 1
412 376 397 1
413 376 408 1
414 378 379 1
415 378 380 1
416 378 398 1
417 379 384 1
418 380 381 1
419 380 382 1
420 380 399 1
421 381 400 1
422 382 383 1
423 382 384 1
424 382 401 1
425 383 402 1
426 384 394 1
427 384 403 1
428 385 386 1
429 385 390 2
430 386 387 2
431 386 404 1
432 387 388 1
433 388 389 2
434 388 394 1
435 389 390 1
436 389 392 1
437 390 391 1
438 391 405 1
439 391 406 1
440 392 393 2
441 393 394 1
442 393 407 1
443 396 409 1
444 410 412 1
445 410 431 2
446 410 432 1
447 411 412 1
448 411 413 1
449 411 433 1
450 411 444 1
451 413 414 1
452 413 415 1
453 413 434 1
454 414 419 1
455 415 416 1
456 415 417 1
457 415 435 1
458 416 445 1
459 417 418 1
460 417 419 1
461 417 436 1
462 418 437 1
463 419 430 1
464 419 438 1
465 420 421 1
466 420 426 1
467 420 439 1
468 421 422 1
469 421 423 2
470 422 440 1
471 422 441 1
472 423 424 1
473 424 425 2
474 424 430 1
475 425 426 1
476 425 428 1
477 426 427 2
478 428 429 2
479 429 430 1
480 429 442 1
481 432 443 1
482 445 447 1
483 445 466 2
484 445 467 1
485 446 447 1
486 446 448 1
487 446 468 1
488 446 479 1
489 448 449 1
490 448 450 1
491 448 469 1
492 449 454 1
493 450 451 1
494 450 452 1
495 450 470 1
496 451 480 1
497 452 453 1
498 452 454 1
499 452 471 1
500 453 472 1
501 454 465 1
502 454 473 1
503 455 456 1
504 455 461 1
505 455 474 1
506 456 457 1
507 456 458 2
508 457 475 1
509 457 476 1
510 458 459 1
511 459 460 2
512 459 465 1
513 460 461 1
514 460 463 1
515 461 462 2
516 463 464 2
517 464 465 1
518 464 477 1
519 467 478 1
520 480 482 1
521 480 501 2
522 480 502 1
523 481 482 1
524 481 483 1
525 481 503 1
526 481 514 1
527 483 484 1
528 483 485 1
529 483 504 1
530 484 489 1
531 485 486 1
532 485 487 1
533 485 505 1
534 486 515 1
535 487 488 1
536 487 489 1
537 487 506 1
538 488 507 1
539 489 500 1
540 489 508 1
541 490 491 1
542 490 496 1
543 490 509 1
544 491 492 1
545 491 493 2
546 492 510 1
547 492 511 1
548 493 494 1
549 494 495 2
550 494 500 1
551 495 496 1
552 495 498 1
553 496 497 2
554 498 499 2
555 499 500 1
556 499 512 1
557 502 513 1
558 515 517 1
559 515 533 2
560 515 534 1
561 516 517 1
562 516 518 1
563 516 535 1
564 516 545 1
565 518 519 1
566 518 520 1
567 518 536 1
568 519 524 1
569 520 521 1
570 520 522 1
571 520 537 1
572 521 546 1
573 522 523 1
574 522 524 1
575 522 538 1
576 523 539 1
577 524 525 1
578 524 540 1
579 525 526 1
580 525 532 1
581 526 527 2
582 526 528 1
583 528 529 1
584 528 541 1
585 529 530 2
586 529 531 1
587 531 532 2
588 531 542 1
589 532 543 1
590 534 544 1
591 546 548 1
592 546 564 2
593 546 565 1
594 547 548 1
595 547 549 1
596 547 566 1
597 547 576 1
598 549 550 1
599 549 551 1
600 549 567 1
601 550 555 1
602 551 552 1
603 551 553 1
604 551 568 1
605 552 577 1
606 553 554 1
607 553 555 1
608 553 569 1
609 554 570 1
610 555 556 1
611 555 571 1
612 556 557 1
613 556 563 1
614 557 558 2
615 557 559 1
616 559 560 1
617 559 572 1
618 560 561 2
619 560 562 1
620 562 563 2
621 562 573 1
622 563 574 1
623 565 575 1
624 577 579 1
625 577 595 2
626 577 596 1
627 578 579 1
628 578 580 1
629 578 597 1
630 578 607 1
631 580 581 1
632 580 582 1
633 580 598 1
634 581 586 1
635 582 583 1
636 582 584 1
637 582 599 1
638 583 608 1
639 584 585 1
640 584 586 1
641 584 600 1
642 585 601 1
643 586 587 1
644 586 602 1
645 587 588 1
646 587 594 1
647 588 589 2
648 588 590 1
649 590 591 1
650 590 603 1
651 591 592 2
652 591 593 1
653 593 594 2
654 593 604 1
655 594 605 1
656 596 606 1
657 608 610 1
658 608 626 2
659 608 627 1
660 609 610 1
661 609 611 1
662 609 628 1
663 609 638 1
664 611 612 1
665 611 613 1
666 611 629 1
667 612 617 1
668 613 614 1
669 613 615 1
670 613 630 1
671 614 639 1
672 615 616 1
673 615 617 1
674 615 631 1
675 616 632 1
676 617 618 1
677 617 633 1
678 618 619 1
679 618 625 1
680 619 620 2
681 619 621 1
682 621 622 1
683 621 634 1
684 622 623 2
685 622 624 1
686 624 625 2
687 624 635 1
688 625 636 1
689 627 637 1
690 639 641 1
691 639 657 2
692 639 658 1
693 640 641 1
694 640 642 1
695 640 659 1
696 640 669 1
697 642 643 1
698 642 644 1
699 642 660 1
700 643 648 1
701 644 645 1
702 644 646 1
703 644 661 1
704 645 670 1
705 646 647 1
706 646 648 1
707 646 662 1
708 647 663 1
709 648 649 1
710 648 664 1
711 649 650 1
712 649 656 1
713 650 651 2
714 650 652 1
715 652 653 1
716 652 665 1
717 653 654 2
718 653 655 1
719 655 656 2
720 655 666 1
721 656 667 1
722 658 668 1
723 670 672 1
724 670 688 2
725 670 689 1
726 671 672 1
727 671 673 1
728 671 690 1
729 671 700 1
730 673 674 1
731 673 675 1
732 673 691 1
733 674 679 1
734 675 676 1
735 675 677 1
736 675 692 1
737 676 702 1
738 677 678 1
739 677 679 1
740 677 693 1
741 678 694 1
742 679 680 1
743 679 695 1
744 680 681 1
745 680 687 1
746 681 682 2
747 681 683 1
748 683 684 2
749 684 685 1
750 684 686 1
751 685 696 1
752 685 697 1
753 686 687 2
754 686 698 1
755 687 699 1
756 689 701 1
757 702 704 1
758 702 720 2
759 702 721 1
760 703 704 1
761 703 705 1
762 703 722 1
763 703 733 1
764 705 706 1
765 705 707 1
766 705 723 1
767 706 711 1
768 707 708 1
769 707 709 1
770 707 724 1
771 708 734 1
772 709 710 1
773 709 711 1
774 709 725 1
775 710 726 1
776 711 712 1
777 711 727 1
778 712 713 1
779 712 719 1
780 713 714 2
781 713 715 1
782 715 716 2
783 716 717 1
784 716 718 1
785 717 728 1
786 717 729 1
787 718 719 2
788 718 730 1
789 719 731 1
790 721 732 1
791 734 736 1
792 734 752 2
793 734 753 1
794 735 736 1
795 735 737 1
796 735 754 1
797 735 764 1
798 737 738 1
799 737 739 1
800 737 755 1
801 738 743 1
802 739 740 1
803 739 741 1
804 739 756 1
805 740 765 1
806 741 742 1
807 741 743 1
808 741 757 1
809 742 758 1
810 743 744 1
811 743 759 1
812 744 745 1
813 744 751 1
814 745 746 2
815 745 747 1
816 747 748 1
817 747 760 1
818 748 749 2
819 748 750 1
820 750 751 2
821 750 761 1
822 751 762 1
823 753 763 1
824 765 767 1
825 765 783 2
826 765 784 1
827 766 767 1
828 766 768 1
829 766 785 1
830 766 795 1
831 768 769 1
832 768 770 1
833 768 786 1
834 769 774 1
835 770 771 1
836 770 772 1
837 770 787 1
838 771 796 1
839 772 773 1
840 772 774 1
841 772 788 1
842 773 789 1
843 774 775 1
844 774 790 1
845 775 776 1
846 775 782 1
847 776 777 2
848 776 778 1
849 778 779 1
850 778 791 1
851 779 780 2
852 779 781 1
853 781 782 2
854 781 792 1
855 782 793 1
856 784 794 1
857 796 798 1
858 796 814 2
859 796 815 1
860 797 798 1
861 797 799 1
862 797 816 1
863 797 826 1
864 799 800 1
865 799 801 1
866 799 817 1
867 800 805 1
868 801 802 1
869 801 803 1
870 801 818 1
871 802 828 1
872 803 804 1
873 803 805 1
874 803 819 1
875 804 820 1
876 805 806 1
877 805 821 1
878 806 807 1
879 806 813 1
880 807 808 2
881 807 809 1
882 809 810 2
883 810 811 1
884 810 812 1
885 811 822 1
886 811 823 1
887 812 813 2
888 812 824 1
889 813 825 1
890 815 827 1
891 828 830 1
892 828 849 2
893 828 850 1
894 829 830 1
895 829 831 1
896 829 851 1
897 829 862 1
898 831 832 1
899 831 833 1
900 831 852 1
901 832 837 1
902 833 834 1
903 833 835 1
904 833 853 1
905 834 863 1
906 835 836 1
907 835 837 1
908 835 854 1
909 836 855 1
910 837 848 1
911 837 856 1
912 838 839 1
913 838 844 1
914 838 857 1
915 839 840 1
916 839 841 2
917 840 858 1
918 840 859 1
919 841 842 1
920 842 843 2
921 842 848 1
922 843 844 1
923 843 846 1
924 844 845 2
925 846 847 2
926 847 848 1
927 847 860 1
928 850 861 1
929 863 865 1
930 863 883 2
931 863 884 1
932 864 865 1
933 864 866 1
934 864 885 1
935 864 896 1
936 866 867 1
937 866 868 1
938 866 886 1
939 867 872 1
940 868 869 1
941 868 870 1
942 868 887 1
943 869 897 1
944 870 871 1
945 870 872 1
946 870 888 1
947 871 889 1
948 872 882 1
949 872 890 1
950 873 874 1
951 873 878 2
952 874 875 2
953 874 891 1
954 875 876 1
955 876 877 2
956 876 882 1
957 877 878 1
958 877 880 1
959 878 879 1
960 879 892 1
961 879 893 1
962 880 881 2
963 881 882 1
964 881 894 1
965 884 895 1
966 897 899 1
967 897 917 2
968 897 918 1
969 898 899 1
970 898 900 1
971 898 919 1
972 898 930 1
973 900 901 1
974 900 902 1
975 900 920 1
976 901 906 1
977 902 903 1
978 902 904 1
979 902 921 1
980 903 931 1
981 904 905 1
982 904 906 1
983 904 922 1
984 905 923 1
985 906 916 1
986 906 924 1
987 907 908 1
988 907 912 2
989 908 909 2
990 908 925 1
991 909 910 1
992 910 911 2
993 910 916 1
994 911 912 1
995 911 914 1
996 912 913 1
997 913 926 1
998 913 927 1
999 914 915 2
1000 915 916 1
1001 915 928 1
1002 918 929 1
1003 931 933 1
1004 931 951 2
1005 931 952 1
1006 932 933 1
1007 932 934 1
1008 932 953 1
1009 932 964 1
1010 934 935 1
1011 934 936 1
1012 934 954 1
1013 935 940 1
1014 936 937 1
1015 936 938 1
1016 936 955 1
1017 937 965 1
1018 938 939 1
1019 938 940 1
1020 938 956 1
1021 939 957 1
1022 940 950 1
1023 940 958 1
1024 941 942 1
1025 941 946 2
1026 942 943 2
1027 942 959 1
1028 943 944 1
1029 944 945 2
1030 944 950 1
1031 945 946 1
1032 945 948 1
1033 946 947 1
1034 947 960 1
1035 947 961 1
1036 948 949 2
1037 949 950 1
1038 949 962 1
1039 952 963 1
1040 965 967 1
1041 965 983 2
1042 965 984 1
1043 966 967 1
1044 966 968 1
1045 966 985 1
1046 966 996 1
1047 968 969 1
1048 968 970 1
1049 968 986 1
1050 969 974 1
1051 970 971 1
1052 970 972 1
1053 970 987 1
1054 971 997 1
1055 972 973 1
1056 972 974 1
1057 972 988 1
1058 973 989 1
1059 974 975 1
1060 974 990 1
1061 975 976 1
1062 975 982 1
1063 976 977 2
1064 976 978 1
1065 978 979 2
1066 979 980 1
1067 979 981 1
1068 980 991 1
1069 980 992 1
1070 981 982 2
1071 981 993 1
1072 982 994 1
1073 984 995 1
1074 997 999 1
1075 997 1017 2
1076 997 1018 1
1077 998 999 1
1078 998 1000 1
1079 998 1019 1
1080 998 1030 1
1081 1000 1001 1
1082 1000 1002 1
1083 1000 1020 1
1084 1001 1006 1
1085 1002 1003 1
1086 1002 1004 1
1087 1002 1021 1
1088 1003 1031 1
1089 1004 1005 1
1090 1004 1006 1
1091 1004 1022 1
1092 1005 1023 1
1093 1006 1016 1
1094 1006 1024 1
1095 1007 1008 1
1096 1007 1012 2
1097 1008 1009 2
1098 1008 1025 1
1099 1009 1010 1
1100 1010 1011 2
1101 1010 1016 1
1102 1011 1012 1
1103 1011 1014 1
1104 1012 1013 1
1105 1013 1026 1
1106 1013 1027 1
1107 1014 1015 2
1108 1015 1016 1
1109 1015 1028 1
1110 1018 1029 1
1111 1031 1033 1
1112 1031 1049 2
1113 1031 1050 1
1114 1032 1033 1
1115 1032 1034 1
1116 1032 1051 1
1117 1032 1062 1
1118 1034 1035 1
1119 1034 1036 1
1120 1034 1052 1
1121 1035 1040 1
1122 1036 1037 1
1123 1036 1038 1
1124 1036 1053 1
1125 1037 1063 1
1126 1038 1039 1
1127 1038 1040 1
1128 1038 1054 1
1129 1039 1055 1
1130 1040 1041 1
1131 1040 1056 1
1132 1041 1042 1
1133 1041 1048 1
1134 1042 1043 2
1135 1042 1044 1
1136 1044 1045 2
1137 1045 1046 1
1138 1045 1047 1
1139 1046 1057 1
1140 1046 1058 1
1141 1047 1048 2
1142 1047 1059 1
1143 1048 1060 1
1144 1050 1061 1
1145 1063 1065 1
1146 1063 1084 2
1147 1063 1085 1
1148 1064 1065 1
1149 1064 1066 1
1150 1064 1086 1
1151 1064 1097 1
1152 1066 1067 1
1153 1066 1068 1
1154 1066 1087 1
1155 1067 1072 1
1156 1068 1069 1
1157 1068 1070 1
1158 1068 1088 1
1159 1069 1098 1
1160 1070 1071 1
1161 1070 1072 1
1162 1070 1089 1
1163 1071 1090 1
1164 1072 1083 1
1165 1072 1091 1
1166 1073 1074 1
1167 1073 1079 1
1168 1073 1092 1
1169 1074 1075 1
1170 1074 1076 2
1171 1075 1093 1
1172 1075 1094 1
1173 1076 1077 1
1174 1077 1078 2
1175 1077 1083 1
1176 1078 1079 1
1177 1078 1081 1
1178 1079 1080 2
1179 1081 1082 2
1180 1082 1083 1
1181 1082 1095 1
1182 1085 1096 1
1183 1098 1100 1
1184 1098 1118 2
1185 1098 1119 1
1186 1099 1100 1
1187 1099 1101 1
1188 1099 1120 1
1189 1099 1131 1
1190 1101 1102 1
1191 1101 1103 1
1192 1101 1121 1
1193 1102 1107 1
1194 1103 1104 1
1195 1103 1105 1
1196 1103 1122 1
1197 1104 1132 1
1198 1105 1106 1
1199 1105 1107 1
1200 1105 1123 1
1201 1106 1124 1
1202 1107 1117 1
1203 1107 1125 1
1204 1108 1109 1
1205 1108 1113 2
1206 1109 1110 2
1207 1109 1126 1
1208 1110 1111 1
1209 1111 1112 2
1210 1111 1117 1
1211 1112 1113 1
1212 1112 1115 1
1213 1113 1114 1
1214 1114 1127 1
1215 1114 1128 1
1216 1115 1116 2
1217 1116 1117 1
1218 1116 1129 1
1219 1119 1130 1
1220 1132 1134 1
1221 1132 1152 2
1222 1132 1153 1
1223 1133 1134 1
1224 1133 1135 1
1225 1133 1154 1
1226 1133 1165 1
1227 1135 1136 1
1228 1135 1137 1
1229 1135 1155 1
1230 1136 1141 1
1231 1137 1138 1
1232 1137 1139 1
1233 1137 1156 1
1234 1138 1166 1
1235 1139 1140 1
1236 1139 1141 1
1237 1139 1157 1
1238 1140 1158 1
1239 1141 1151 1
1240 1141 1159 1
1241 1142 1143 1
1242 1142 1147 2
1243 1143 1144 2
1244 1143 1160 1
1245 1144 1145 1
1246 1145 1146 2
1247 1145 1151 1
1248 1146 1147 1
1249 1146 1149 1
1250 1147 1148 1
1251 1148 1161 1
1252 1148 1162 1
1253 1149 1150 2
1254 1150 1151 1
1255 1150 1163 1
1256 1153 1164 1
1257 1166 1168 1
1258 1166 1187 2
1259 1166 1188 1
1260 1167 1168 1
1261 1167 1169 1
1262 1167 1189 1
1263 1167 1200 1
1264 1169 1170 1
1265 1169 1171 1
1266 1169 1190 1
1267 1170 1175 1
1268 1171 1172 1
1269 1171 1173 1
1270 1171 1191 1
1271 1172 1201 1
1272 1173 1174 1
1273 1173 1175 1
1274 1173 1192 1
1275 1174 1193 1
1276 1175 1186 1
1277 1175 1194 1
1278 1176 1177 1
1279 1176 1182 1
1280 1176 1195 1
1281 1177 1178 1
1282 1177 1179 2
1283 1178 1196 1
1284 1178 1197 1
1285 1179 1180 1
1286 1180 1181 2
1287 1180 1186 1
1288 1181 1182 1
1289 1181 1184 1
1290 1182 1183 2
1291 1184 1185 2
1292 1185 1186 1
1293 1185 1198 1
1294 1188 1199 1
1295 1201 1203 1
1296 1201 1222 2
1297 1201 1223 1
1298 1202 1203 1
1299 1202 1204 1
1300 1202 1224 1
1301 1202 1235 1
1302 1204 1205 1
1303 1204 1206 1
1304 1204 1225 1
1305 1205 1210 1
1306 1206 1207 1
1307 1206 1208 1
1308 1206 1226 1
1309 1207 1236 1
1310 1208 1209 1
1311 1208 1210 1
1312 1208 1227 1
1313 1209 1228 1
1314 1210 1221 1
1315 1210 1229 1
1316 1211 1212 1
1317 1211 1217 1
1318 1211 1230 1
1319 1212 1213 1
1320 1212 1214 2
1321 1213 1231 1
1322 1213 1232 1
1323 1214 1215 1
1324 1215 1216 2
1325 1215 1221 1
1326 1216 1217 1
1327 1216 1219 1
1328 1217 1218 2
1329 1219 1220 2
1330 1220 1221 1
1331 1220 1233 1
1332 1223 1234 1
1333 1236 1238 1
1334 1236 1254 2
1335 1236 1255 1
1336 1237 1238 1
1337 1237 1239 1
1338 1237 1256 1
1339 1237 1266 1
1340 1239 1240 1
1341 1239 1241 1
1342 1239 1257 1
1343 1240 1245 1
1344 1241 1242 1
1345 1241 1243 1
1346 1241 1258 1
1347 1242 1267 1
1348 1243 1244 1
1349 1243 1245 1
1350 1243 1259 1
1351 1244 1260 1
1352 1245 1246 1
1353 1245 1261 1
1354 1246 1247 1
1355 1246 1253 1
1356 1247 1248 2
1357 1247 1249 1
1358 1249 1250 1
1359 1249 1262 1
1360 1250 1251 2
1361 1250 1252 1
1362 1252 1253 2
1363 1252 1263 1
1364 1253 1264 1
1365 1255 1265 1
1366 1267 1269 1
1367 1267 1285 2
1368 1267 1286 1
1369 1268 1269 1
1370 1268 1270 1
1371 1268 1287 1
1372 1268 1297 1
1373 1270 1271 1
1374 1270 1272 1
1375 1270 1288 1
1376 1271 1276 1
1377 1272 1273 1
1378 1272 1274 1
1379 1272 1289 1
1380 1273 1298 1
1381 1274 1275 1
1382 1274 1276 1
1383 1274 1290 1
1384 1275 1291 1
1385 1276 1277 1
1386 1276 1292 1
1387 1277 1278 1
1388 1277 1284 1
1389 1278 1279 2
1390 1278 1280 1
1391 1280 1281 1
1392 1280 1293 1
1393 1281 1282 2
1394 1281 1283 1
1395 1283 1284 2
1396 1283 1294 1
1397 1284 1295 1
1398 1286 1296 1
1399 1298 1300 1
1400 1298 1316 2
1401 1298 1317 1
1402 1299 1300 1
1403 1299 1301 1
1404 1299 1318 1
1405 1299 1328 1
1406 1301 1302 1
1407 1301 1303 1
1408 1301 1319 1
1409 1302 1307 1
1410 1303 1304 1
1411 1303 1305 1
1412 1303 1320 1
1413 1304 1329 1
1414 1305 1306 1
1415 1305 1307 1
1416 1305 1321 1
1417 1306 1322 1
1418 1307 1308 1
1419 1307 1323 1
1420 1308 1309 1
1421 1308 1315 1
1422 1309 1310 2
1423 1309 1311 1
1424 1311 1312 1
1425 1311 1324 1
1426 1312 1313 2
1427 1312 1314 1
1428 1314 1315 2
1429 1314 1325 1
1430 1315 1326 1
1431 1317 1327 1
1432 1329 1331 1
1433 1329 1347 2
1434 1329 1348 1
1435 1330 1331 1
1436 1330 1332 1
1437 1330 1349 1
1438 1330 1359 1
1439 1332 1333 1
1440 1332 1334 1
1441 1332 1350 1
1442 1333 1338 1
1443 1334 1335 1
1444 1334 1336 1
1445 1334 1351 1
1446 1335 1360 1
1447 1336 1337 1
1448 1336 1338 1
1449 1336 1352 1
1450 1337 1353 1
1451 1338 1339 1
1452 1338 1354 1
1453 1339 1340 1
1454 1339 1346 1
1455 1340 1341 2
1456 1340 1342 1
1457 1342 1343 1
1458 1342 1355 1
1459 1343 1344 2
1460 1343 1345 1
1461 1345 1346 2
1462 1345 1356 1
1463 1346 1357 1
1464 1348 1358 1
1465 1360 1362 1
1466 1360 1378 2
1467 1360 1379 1
1468 1361 1362 1
1469 1361 1363 1
1470 1361 1380 1
1471 1361 1390 1
1472 1363 1364 1
1473 1363 1365 1
1474 1363 1381 1
1475 1364 1369 1
1476 1365 1366 1
1477 1365 1367 1
1478 1365 1382 1
1479 1366 1391 1
1480 1367 1368 1
1481 1367 1369 1
1482 1367 1383 1
1483 1368 1384 1
1484 1369 1370 1
1485 1369 1385 1
1486 1370 1371 1
1487 1370 1377 1
1488 1371 1372 2
1489 1371 1373 1
1490 1373 1374 1
1491 1373 1386 1
1492 1374 1375 2
1493 1374 1376 1
1494 1376 1377 2
1495 1376 1387 1
1496 1377 1388 1
1497 1379 1389 1
1498 1391 1393 1
1499 1391 1411 2
1500 1391 1412 1
1501 1392 1393 1
1502 1392 1394 1
1503 1392 1413 1
1504 1392 1423 1
1505 1394 1395 1
1506 1394 1396 1
1507 1394 1414 1
1508 1395 1400 1
1509 1396 1397 1
1510 1396 1398 1
1511 1396 1415 1
1512 1397 1425 1
1513 1398 1399 1
1514 1398 1400 1
1515 1398 1416 1
1516 1399 1417 1
1517 1400 1410 1
1518 1400 1418 1
1519 1401 1402 1
1520 1401 1406 2
1521 1402 1403 2
1522 1402 1419 1
1523 1403 1404 1
1524 1404 1405 2
1525 1404 1410 1
1526 1405 1406 1
1527 1405 1408 1
1528 1406 1407 1
1529 1407 1420 1
1530 1407 1421 1
1531 1408 1409 2
1532 1409 1410 1
1533 1409 1422 1
1534 1412 1424 1
1535 1425 1427 1
1536 1425 1443 2
1537 1425 1444 1
1538 1426 1427 1
1539 1426 1428 1
1540 1426 1445 1
1541 1426 1455 1
1542 1428 1429 1
1543 1428 1430 1
1544 1428 1446 1
1545 1429 1434 1
1546 1430 1431 1
1547 1430 1432 1
1548 1430 1447 1
1549 1431 1456 1
1550 1432 1433 1
1551 1432 1434 1
1552 1432 1448 1
1553 1433 1449 1
1554 1434 1435 1
1555 1434 1450 1
1556 1435 1436 1
1557 1435 1442 1
1558 1436 1437 2
1559 1436 1438 1
1560 1438 1439 1
1561 1438 1451 1
1562 1439 1440 2
1563 1439 1441 1
1564 1441 1442 2
1565 1441 1452 1
1566 1442 1453 1
1567 1444 1454 1
1568 1456 1458 1
1569 1456 1474 2
1570 1456 1475 1
1571 1457 1458 1
1572 1457 1459 1
1573 1457 1476 1
1574 1457 1486 1
1575 1459 1460 1
1576 1459 1461 1
1577 1459 1477 1
1578 1460 1465 1
1579 1461 1462 1
1580 1461 1463 1
1581 1461 1478 1
1582 1462 1488 1
1583 1463 1464 1
1584 1463 1465 1
1585 1463 1479 1
1586 1464 1480 1
1587 1465 1466 1
1588 1465 1481 1
1589 1466 1467 1
1590 1466 1473 1
1591 1467 1468 2
1592 1467 1469 1
1593 1469 1470 2
1594 1470 1471 1
1595 1470 1472 1
1596 1471 1482 1
1597 1471 1483 1
1598 1472 1473 2
1599 1472 1484 1
1600 1473 1485 1
1601 1475 1487 1
1602 1488 1490 1
1603 1488 1506 2
1604 1488 1507 1
1605 1489 1490 1
1606 1489 1491 1
1607 1489 1508 1
1608 1489 1519 1
1609 1491 1492 1
1610 1491 1493 1
1611 1491 1509 1
1612 1492 1497 1
1613 1493 1494 1
1614 1493 1495 1
1615 1493 1510 1
1616 1494 1520 1
1617 1495 1496 1
1618 1495 1497 1
1619 1495 1511 1
1620 1496 1512 1
1621 1497 1498 1
1622 1497 1513 1
1623 1498 1499 1
1624 1498 1505 1
1625 1499 1500 2
1626 1499 1501 1
1627 1501 1502 2
1628 1502 1503 1
1629 1502 1504 1
1630 1503 1514 1
1631 1503 1515 1
1632 1504 1505 2
1633 1504 1516 1
1634 1505 1517 1
1635 1507 1518 1
1636 1520 1522 1
1637 1520 1538 2
1638 1520 1539 1
1639 1521 1522 1
1640 1521 1523 1
1641 1521 1540 1
1642 1521 1551 1
1643 1523 1524 1
1644 1523 1525 1
1645 1523 1541 1
1646 1524 1529 1
1647 1525 1526 1
1648 1525 1527 1
1649 1525 1542 1
1650 1526 1552 1
1651 1527 1528 1
1652 1527 1529 1
1653 1527 1543 1
1654 1528 1544 1
1655 1529 1530 1
1656 1529 1545 1
1657 1530 1531 1
1658 1530 1537 1
1659 1531 1532 2
1660 1531 1533 1
1661 1533 1534 2
1662 1534 1535 1
1663 1534 1536 1
1664 1535 1546 1
1665 1535 1547 1
1666 1536 1537 2
1667 1536 1548 1
1668 1537 1549 1
1669 1539 1550 1
1670 1552 1554 1
1671 1552 1570 2
1672 1552 1571 1
1673 1553 1554 1
1674 1553 1555 1
1675 1553 1572 1
1676 1553 1582 1
1677 1555 1556 1
1678 1555 1557 1
1679 1555 1573 1
1680 1556 1561 1
1681 1557 1558 1
1682 1557 1559 1
1683 1557 1574 1
1684 1558 1583 1
1685 1559 1560 1
1686 1559 1561 1
1687 1559 1575 1
1688 1560 1576 1
1689 1561 1562 1
1690 1561 1577 1
1691 1562 1563 1
1692 1562 1569 1
1693 1563 1564 2
1694 1563 1565 1
1695 1565 1566 1
1696 1565 1578 1
1697 1566 1567 2
1698 1566 1568 1
1699 1568 1569 2
1700 1568 1579 1
1701 1569 1580 1
1702 1571 1581 1
1703 1583 1585 1
1704 1583 1604 2
1705 1583 1605 1
1706 1584 1585 1
1707 1584 1586 1
1708 1584 1606 1
1709 1584 1616 1
1710 1586 1587 1
1711 1586 1588 1
1712 1586 1607 1
1713 1587 1592 1
1714 1588 1589 1
1715 1588 1590 1
1716 1588 1608 1
1717 1589 1618 1
1718 1590 1591 1
1719 1590 1592 1
1720 1590 1609 1
1721 1591 1610 1
1722 1592 1603 1
1723 1592 1611 1
1724 1593 1594 1
1725 1593 1599 1
1726 1593 1612 1
1727 1594 1595 1
1728 1594 1596 2
1729 1595 1613 1
1730 1595 1614 1
1731 1596 1597 1
1732 1597 1598 2
1733 1597 1603 1
1734 1598 1599 1
1735 1598 1601 1
1736 1599 1600 2
1737 1601 1602 2
1738 1602 1603 1
1739 1602 1615 1
1740 1605 1617 1
1741 1618 1620 1
1742 1618 1636 2
1743 1618 1637 1
1744 1619 1620 1
1745 1619 1621 1
1746 1619 1638 1
1747 1619 1649 1
1748 1621 1622 1
1749 1621 1623 1
1750 1621 1639 1
1751 1622 1627 1
1752 1623 1624 1
1753 1623 1625 1
1754 1623 1640 1
1755 1624 1650 1
1756 1625 1626 1
1757 1625 1627 1
1758 1625 1641 1
1759 1626 1642 1
1760 1627 1628 1
1761 1627 1643 1
1762 1628 1629 1
1763 1628 1635 1
1764 1629 1630 2
1765 1629 1631 1
1766 1631 1632 2
1767 1632 1633 1
1768 1632 1634 1
1769 1633 1644 1
1770 1633 1645 1
1771 1634 1635 2
1772 1634 1646 1
1773 1635 1647 1
1774 1637 1648 1
1775 1650 1652 1
1776 1650 1668 2
1777 1650 1669 1
1778 1651 1652 1
1779 1651 1653 1
1780 1651 1670 1
1781 1651 1681 1
1782 1653 1654 1
1783 1653 1655 1
1784 1653 1671 1
1785 1654 1659 1
1786 1655 1656 1
1787 1655 1657 1
1788 1655 1672 1
1789 1656 1673 1
1790 1657 1658 1
1791 1657 1659 1
1792 1657 1674 1
1793 1658 1675 1
1794 1659 1660 1
1795 1659 1676 1
1796 1660 1661 1
1797 1660 1667 1
1798 1661 1662 2
1799 1661 1663 1
1800 1663 1664 2
1801 1664 1665 1
1802 1664 1666 1
1803 1665 1677 1
1804 1665 1678 1
1805 1666 1667 2
1806 1666 1679 1
1807 1667 1680 1
1808 1669 1682 1
@<TRIPOS>SUBSTRUCTURE
1	G1	1	RESIDUE	1 a	G
2	G2	36	RESIDUE	1 a	G
3	C3	71	RESIDUE	1 a	C
4	A4	103	RESIDUE	1 a	A
5	A5	137	RESIDUE	1 a	A
6	A6	171	RESIDUE	1 a	A
7	A7	205	RESIDUE	1 a	A
8	A8	239	RESIDUE	1 a	A
9	A9	273	RESIDUE	1 a	A
10	A10	307	RESIDUE	1 a	A
11	A11	341	RESIDUE	1 a	A
12	A12	375	RESIDUE	1 a	A
13	G1	410	RESIDUE	1 r	G
14	G2	445	RESIDUE	1 r	G
15	G3	480	RESIDUE	1 r	G
16	U4	515	RESIDUE	1 r	U
17	U5	546	RESIDUE	1 r	U
18	U6	577	RESIDUE	1 r	U
19	U7	608	RESIDUE	1 r	U
20	U8	639	RESIDUE	1 r	U
21	C9	670	RESIDUE	1 r	C
22	C10	702	RESIDUE	1 r	C
23	U11	734	RESIDUE	1 r	U
24	U12	765	RESIDUE	1 r	U
25	C13	796	RESIDUE	1 r	C
26	G14	828	RESIDUE	1 r	G
27	A15	863	RESIDUE	1 r	A
28	A16	897	RESIDUE	1 r	A
29	A17	931	RESIDUE	1 r	A
30	C18	965	RESIDUE	1 r	C
31	A19	997	RESIDUE	1 r	A
32	C20	1031	RESIDUE	1 r	C
33	G21	1063	RESIDUE	1 r	G
34	A22	1098	RESIDUE	1 r	A
35	A23	1132	RESIDUE	1 r	A
36	G24	1166	RESIDUE	1 r	G
37	G25	1201	RESIDUE	1 r	G
38	U26	1236	RESIDUE	1 r	U
39	U27	1267	RESIDUE	1 r	U
40	U28	1298	RESIDUE	1 r	U
41	U29	1329	RESIDUE	1 r	U
42	U30	1360	RESIDUE	1 r	U
43	A31	1391	RESIDUE	1 r	A
44	U32	1425	RESIDUE	1 r	U
45	C33	1456	RESIDUE	1 r	C
46	C34	1488	RESIDUE	1 r	C
47	C35	1520	RESIDUE	1 r	C
48	U36	1552	RESIDUE	1 r	U
49	G37	1583	RESIDUE	1 r	G
50	C38	1618	RESIDUE	1 r	C
51	C39	1650	RESIDUE	1 r	C
