15.pdb
 OpenBabel02052404583D

 57 59  0  0  0  0  0  0  0  0999 V2000
   -6.5320    3.8790   -0.3880 C   0  0  0  0  0  0  0  0  0  0  0  0
   -5.9080    2.6510   -0.6250 C   0  0  0  0  0  0  0  0  0  0  0  0
   -4.5340    2.5950   -1.0300 C   0  0  0  0  0  0  0  0  0  0  0  0
   -3.8620    3.8230   -1.2300 C   0  0  0  0  0  0  0  0  0  0  0  0
   -4.5040    5.0410   -0.9900 C   0  0  0  0  0  0  0  0  0  0  0  0
   -5.8300    5.0690   -0.5610 C   0  0  0  0  0  0  0  0  0  0  0  0
   -6.6380    1.5090   -0.4890 N   0  0  0  0  0  0  0  0  0  0  0  0
   -6.0740    0.3050   -0.7210 C   0  0  0  0  0  0  0  0  0  0  0  0
   -4.7620    0.1850   -1.1130 C   0  0  0  0  0  0  0  0  0  0  0  0
   -3.9370    1.3130   -1.2680 C   0  0  0  0  0  0  0  0  0  0  0  0
   -6.7710   -1.0050   -0.7010 C   0  0  0  0  0  0  0  0  0  0  0  0
   -5.5760   -1.9570   -0.6320 C   0  0  0  0  0  0  0  0  0  0  0  0
   -4.4360   -1.2490   -1.3700 C   0  0  0  0  0  0  0  0  0  0  0  0
   -2.5720    1.0850   -1.6460 N   0  0  0  0  0  0  0  0  0  0  0  0
   -1.4790    1.6830   -1.0840 C   0  0  0  0  0  0  0  0  0  0  0  0
   -1.5990    2.5130   -0.1950 O   0  0  0  0  0  0  0  0  0  0  0  0
   -0.0900    1.2410   -1.4850 C   0  0  0  0  0  0  0  0  0  0  0  0
    0.0660   -0.2230   -1.3660 N   0  0  0  0  0  0  0  0  0  0  0  0
    0.2940   -0.8290   -0.0290 C   0  0  0  0  0  0  0  0  0  0  0  0
    1.7290   -0.4990    0.5850 C   0  0  0  0  0  0  0  0  0  0  0  0
   -0.7570   -0.3280    0.9980 C   0  0  0  0  0  0  0  0  0  0  0  0
    0.0150   -2.3490   -0.1670 C   0  0  0  0  0  0  0  0  0  0  0  0
    3.1640   -0.9970    0.0000 C   0  0  0  0  0  0  0  0  0  0  0  0
    4.1700   -0.4350    1.1110 C   0  0  0  0  0  0  0  0  0  0  0  0
    3.1640   -1.8220    0.0000 C   0  0  0  0  0  0  0  0  0  0  0  0
    3.5410   -0.1720   -1.3290 C   0  0  0  0  0  0  0  0  0  0  0  0
   -7.5690    3.9130   -0.0770 H   0  0  0  0  0  0  0  0  0  0  0  0
   -2.8500    3.8720   -1.5940 H   0  0  0  0  0  0  0  0  0  0  0  0
   -3.9710    5.9700   -1.1450 H   0  0  0  0  0  0  0  0  0  0  0  0
   -6.3200    6.0170   -0.3800 H   0  0  0  0  0  0  0  0  0  0  0  0
   -7.4330   -1.1630    0.1780 H   0  0  0  0  0  0  0  0  0  0  0  0
   -7.3380   -1.1030   -1.6520 H   0  0  0  0  0  0  0  0  0  0  0  0
   -5.7690   -3.0110   -0.9180 H   0  0  0  0  0  0  0  0  0  0  0  0
   -5.2690   -1.9620    0.4420 H   0  0  0  0  0  0  0  0  0  0  0  0
   -4.4770   -1.4140   -2.4690 H   0  0  0  0  0  0  0  0  0  0  0  0
   -3.4610   -1.5860   -0.9560 H   0  0  0  0  0  0  0  0  0  0  0  0
   -2.3860    0.2860   -2.2720 H   0  0  0  0  0  0  0  0  0  0  0  0
    0.6980    1.7810   -0.9190 H   0  0  0  0  0  0  0  0  0  0  0  0
    0.0270    1.5180   -2.5550 H   0  0  0  0  0  0  0  0  0  0  0  0
    0.7850   -0.5610   -2.0390 H   0  0  0  0  0  0  0  0  0  0  0  0
    1.6580   -0.8770    1.6410 H   0  0  0  0  0  0  0  0  0  0  0  0
    1.7800    0.6070    0.6920 H   0  0  0  0  0  0  0  0  0  0  0  0
   -1.7910   -0.4910    0.6260 H   0  0  0  0  0  0  0  0  0  0  0  0
   -0.6140    0.7430    1.2360 H   0  0  0  0  0  0  0  0  0  0  0  0
   -0.6610   -0.8760    1.9610 H   0  0  0  0  0  0  0  0  0  0  0  0
   -1.0440   -2.5140   -0.4650 H   0  0  0  0  0  0  0  0  0  0  0  0
    0.5960   -2.8410   -0.9680 H   0  0  0  0  0  0  0  0  0  0  0  0
    0.1960   -2.8800    0.7910 H   0  0  0  0  0  0  0  0  0  0  0  0
    3.9720   -0.8450    2.1340 H   0  0  0  0  0  0  0  0  0  0  0  0
    4.0870    0.6720    1.1940 H   0  0  0  0  0  0  0  0  0  0  0  0
    5.2420   -0.6430    0.8760 H   0  0  0  0  0  0  0  0  0  0  0  0
    2.5200   -2.1460   -0.8640 H   0  0  0  0  0  0  0  0  0  0  0  0
    4.1960   -2.1780   -0.3420 H   0  0  0  0  0  0  0  0  0  0  0  0
    3.1640   -2.8920    0.0000 H   0  0  0  0  0  0  0  0  0  0  0  0
    3.4460    0.9210   -1.1450 H   0  0  0  0  0  0  0  0  0  0  0  0
    2.9110   -0.4120   -2.2090 H   0  0  0  0  0  0  0  0  0  0  0  0
    4.5950   -0.3580   -1.6420 H   0  0  0  0  0  0  0  0  0  0  0  0
  1  2  2  0  0  0  0
  1  6  1  0  0  0  0
  1 27  1  0  0  0  0
  2  3  1  0  0  0  0
  2  7  1  0  0  0  0
  3  4  2  0  0  0  0
  3 10  1  0  0  0  0
  4  5  1  0  0  0  0
  4 28  1  0  0  0  0
  5  6  2  0  0  0  0
  5 29  1  0  0  0  0
  6 30  1  0  0  0  0
  7  8  2  0  0  0  0
  8  9  1  0  0  0  0
  8 11  1  0  0  0  0
  9 10  2  0  0  0  0
  9 13  1  0  0  0  0
 10 14  1  0  0  0  0
 11 12  1  0  0  0  0
 11 31  1  0  0  0  0
 11 32  1  0  0  0  0
 12 13  1  0  0  0  0
 12 33  1  0  0  0  0
 12 34  1  0  0  0  0
 13 35  1  0  0  0  0
 13 36  1  0  0  0  0
 14 15  1  0  0  0  0
 14 37  1  0  0  0  0
 15 16  2  0  0  0  0
 15 17  1  0  0  0  0
 17 18  1  0  0  0  0
 17 38  1  0  0  0  0
 17 39  1  0  0  0  0
 18 19  1  0  0  0  0
 18 40  1  0  0  0  0
 19 20  1  0  0  0  0
 19 21  1  0  0  0  0
 19 22  1  0  0  0  0
 20 23  1  0  0  0  0
 20 41  1  0  0  0  0
 20 42  1  0  0  0  0
 21 43  1  0  0  0  0
 21 44  1  0  0  0  0
 21 45  1  0  0  0  0
 22 46  1  0  0  0  0
 22 47  1  0  0  0  0
 22 48  1  0  0  0  0
 23 24  1  0  0  0  0
 23 25  1  0  0  0  0
 23 26  1  0  0  0  0
 24 49  1  0  0  0  0
 24 50  1  0  0  0  0
 24 51  1  0  0  0  0
 25 52  1  0  0  0  0
 25 53  1  0  0  0  0
 25 54  1  0  0  0  0
 26 55  1  0  0  0  0
 26 56  1  0  0  0  0
 26 57  1  0  0  0  0
M  END
>  <COMPND>
    15.sdf 

>  <AUTHOR>
    GENERATED BY OPEN BABEL 2.4.1

>  <MASTER>
        0    0    0    0    0    0    0    0   57    0   57    0

$$$$
